#	Name: ASD05313083
#	Creating user name:	WinNT
#	Creation time:	15. 06. 2019 20:58

#	Modifying user name:	WinNT
#	Modification time:	15. 06. 2019 20:58

#	Program:	/corina/corina34_cracker 3.40 0067  02.08.2006

@<TRIPOS>MOLECULE
ASD05313083
  38   41    0    0    0
SMALL
NO_CHARGES


@<TRIPOS>ATOM
   1 C1            -0.0647     0.7552     1.0922 C.2     
   2 C2             0.1301    -0.6702     0.6332 C.3     
   3 N3             0.9285     1.6783     1.1231 N.pl3   
   4 N4             1.4657    -0.7434     0.0112 N.am    
   5 C5             2.5823    -0.0637     0.6855 C.3     
   6 C6             2.3122     1.4454     0.7130 C.3     
   7 N7            -0.9057     2.5553     1.8241 N.2     
   8 N8            -1.1499     1.3265     1.5215 N.2     
   9 C9             0.3645     2.8229     1.5984 C.2     
  10 C10            1.0468     4.1163     1.8212 C.ar    
  11 C11            0.3258     5.2029     2.3166 C.ar    
  12 C12            0.9784     6.4060     2.5200 C.ar    
  13 C13            2.3316     6.4847     2.2217 C.ar    
  14 C14            2.9851     5.3679     1.7334 C.ar    
  15 N15            2.3421     4.2325     1.5533 N.ar    
  16 C16            1.6574    -1.4143    -1.1419 C.2     
  17 O17            2.7414    -1.3811    -1.6915 O.2     
  18 C18            0.5516    -2.1892    -1.7373 C.ar    
  19 C19            0.3200    -2.1371    -3.1164 C.ar    
  20 C20           -0.7172    -2.8652    -3.6666 C.ar    
  21 C21           -1.5258    -3.6444    -2.8552 C.ar    
  22 C22           -1.2996    -3.6989    -1.4877 C.ar    
  23 C23           -0.2647    -2.9824    -0.9274 C.ar    
  24 F24           -2.5393    -4.3539    -3.3981 F       
  25 F25            1.1080    -1.3765    -3.9074 F       
  26 H26            0.0798    -1.3460     1.4870 H       
  27 H27           -0.6352    -0.9339    -0.0968 H       
  28 H28            2.6722    -0.4360     1.7060 H       
  29 H29            3.5076    -0.2582     0.1433 H       
  30 H30            2.4724     1.8619    -0.2815 H       
  31 H31            2.9877     1.9236     1.4223 H       
  32 H32           -0.7269     5.1065     2.5378 H       
  33 H33            0.4465     7.2647     2.9022 H       
  34 H34            2.8693     7.4096     2.3692 H       
  35 H35            4.0380     5.4265     1.5001 H       
  36 H36           -0.8981    -2.8267    -4.7306 H       
  37 H37           -1.9340    -4.3081    -0.8609 H       
  38 H38           -0.0879    -3.0300     0.1369 H       
@<TRIPOS>BOND
   1    1    2 1
   2    1    3 1
   3    1    8 2
   4    2    4 1
   5    2   26 1
   6    2   27 1
   7    3    6 1
   8    3    9 1
   9    4    5 1
  10    4   16 am
  11    5    6 1
  12    5   28 1
  13    5   29 1
  14    6   30 1
  15    6   31 1
  16    7    8 1
  17    7    9 2
  18    9   10 1
  19   10   11 ar
  20   10   15 ar
  21   11   12 ar
  22   11   32 1
  23   12   13 ar
  24   12   33 1
  25   13   14 ar
  26   13   34 1
  27   14   15 ar
  28   14   35 1
  29   16   17 2
  30   16   18 1
  31   18   19 ar
  32   18   23 ar
  33   19   20 ar
  34   19   25 1
  35   20   21 ar
  36   20   36 1
  37   21   22 ar
  38   21   24 1
  39   22   23 ar
  40   22   37 1
  41   23   38 1

#	End of record

