#	Name: ASD01810047
#	Creating user name:	WinNT
#	Creation time:	15. 06. 2019 19:23

#	Modifying user name:	WinNT
#	Modification time:	15. 06. 2019 19:23

#	Program:	/corina/corina34_cracker 3.40 0067  02.08.2006

@<TRIPOS>MOLECULE
ASD01810047
  59   66    0    0    0
SMALL
NO_CHARGES


@<TRIPOS>ATOM
   1 C1             0.2472     1.6269    -0.1220 C.ar    
   2 C2             0.1719     0.2145    -0.1208 C.ar    
   3 C3             1.3457    -0.5423    -0.1065 C.ar    
   4 C4             2.5911     0.0956    -0.0986 C.ar    
   5 C5             2.6613     1.4977    -0.1054 C.ar    
   6 C6             1.4911     2.2494    -0.1141 C.ar    
   7 N7             3.8743    -0.4302    -0.0817 N.pl3   
   8 C8             4.7864     0.5982    -0.0862 C.ar    
   9 C9             4.0881     1.8260    -0.1011 C.ar    
  10 C10            6.1806     0.5750    -0.0803 C.ar    
  11 C11            6.8316     1.7973    -0.0905 C.ar    
  12 C12            6.1449     2.9983    -0.1055 C.ar    
  13 C13            4.7606     3.0477    -0.1107 C.ar    
  14 C14           -0.9280    -0.7455    -0.1322 C.ar    
  15 C15           -0.3431    -2.0334    -0.1182 C.ar    
  16 N16            1.0225    -1.8963    -0.1011 N.pl3   
  17 C17           -2.3133    -0.5745    -0.1536 C.ar    
  18 C18           -3.0843    -1.7246    -0.1598 C.ar    
  19 C19           -2.5141    -2.9854    -0.1449 C.ar    
  20 C20           -1.1425    -3.1756    -0.1239 C.ar    
  21 C21            1.2258     3.7352    -0.1167 C.3     
  22 N22           -0.2333     3.8891    -0.1240 N.am    
  23 C23           -0.7928     2.6673    -0.1247 C.2     
  24 O24           -1.9897     2.4521    -0.1318 O.2     
  25 C25            2.0043    -2.9817    -0.0823 C.3     
  26 O26            3.2058    -2.6298    -0.7305 O.3     
  27 C27            4.1829    -1.8610    -0.0666 C.3     
  28 C28            2.2304    -3.4757     1.3409 C.3     
  29 C29            4.4369    -2.3399     1.3572 C.3     
  30 C30            3.1007    -2.4664     2.0981 C.3     
  31 C31            5.4958    -2.0449    -0.8302 C.3     
  32 H32            1.5718    -3.8145    -0.6368 H       
  33 O33            5.0852    -3.6129     1.3233 O.3     
  34 C34            5.3166    -1.3468     2.0721 C.2     
  35 O35            6.6521    -1.4447     1.9797 O.3     
  36 O36            4.8196    -0.4624     2.7285 O.2     
  37 C37            7.4367    -0.4539     2.6944 C.3     
  38 H38            6.7288    -0.3555    -0.0679 H       
  39 H39            7.9115     1.8136    -0.0863 H       
  40 H40            6.7034     3.9226    -0.1133 H       
  41 H41            4.2278     3.9871    -0.1216 H       
  42 H42           -2.7622     0.4078    -0.1645 H       
  43 H43           -4.1604    -1.6352    -0.1764 H       
  44 H44           -3.1607    -3.8504    -0.1497 H       
  45 H45           -0.7110    -4.1656    -0.1121 H       
  46 H46            1.6465     4.1928     0.7787 H       
  47 H47            1.6554     4.1911    -1.0087 H       
  48 H48           -0.7138     4.7318    -0.1260 H       
  49 H49            1.2704    -3.5793     1.8466 H       
  50 H50            2.7338    -4.4421     1.3146 H       
  51 H51            2.6018    -1.4976     2.1253 H       
  52 H52            3.2752    -2.8200     3.1142 H       
  53 H53            6.3344    -1.8279    -0.1686 H       
  54 H54            5.5691    -3.0732    -1.1844 H       
  55 H55            5.5193    -1.3648    -1.6817 H       
  56 H56            5.2782    -3.9795     2.1971 H       
  57 H57            8.4977    -0.6474     2.5361 H       
  58 H58            7.1897     0.5411     2.3242 H       
  59 H59            7.2118    -0.5115     3.7594 H       
@<TRIPOS>BOND
   1    1    2 ar
   2    1    6 ar
   3    1   23 1
   4    2    3 ar
   5    2   14 1
   6    3    4 ar
   7    3   16 1
   8    4    5 ar
   9    4    7 1
  10    5    6 ar
  11    5    9 1
  12    6   21 1
  13    7    8 1
  14    7   27 1
  15    8    9 ar
  16    8   10 ar
  17    9   13 ar
  18   10   11 ar
  19   10   38 1
  20   11   12 ar
  21   11   39 1
  22   12   13 ar
  23   12   40 1
  24   13   41 1
  25   14   15 ar
  26   14   17 ar
  27   15   16 1
  28   15   20 ar
  29   16   25 1
  30   17   18 ar
  31   17   42 1
  32   18   19 ar
  33   18   43 1
  34   19   20 ar
  35   19   44 1
  36   20   45 1
  37   21   22 1
  38   21   46 1
  39   21   47 1
  40   22   23 am
  41   22   48 1
  42   23   24 2
  43   25   26 1
  44   25   28 1
  45   25   32 1
  46   26   27 1
  47   27   29 1
  48   27   31 1
  49   28   30 1
  50   28   49 1
  51   28   50 1
  52   29   33 1
  53   29   34 1
  54   29   30 1
  55   30   51 1
  56   30   52 1
  57   31   53 1
  58   31   54 1
  59   31   55 1
  60   33   56 1
  61   34   35 1
  62   34   36 2
  63   35   37 1
  64   37   57 1
  65   37   58 1
  66   37   59 1

#	End of record

