#	Name: ASD03091580
#	Creating user name:	WinNT
#	Creation time:	15. 06. 2019 20:31

#	Modifying user name:	WinNT
#	Modification time:	15. 06. 2019 20:31

#	Program:	/corina/corina34_cracker 3.40 0067  02.08.2006

@<TRIPOS>MOLECULE
ASD03091580
  45   48    0    0    0
SMALL
NO_CHARGES


@<TRIPOS>ATOM
   1 C1            -0.0195     1.3496     0.0164 C.2     
   2 C2            -0.0036     0.0113     0.1886 C.2     
   3 N3            -1.1902    -0.5545     0.1446 N.2     
   4 C4            -2.2099     0.2254    -0.0548 C.2     
   5 S5            -1.6948     1.8486    -0.2036 S.3     
   6 N6            -3.5248    -0.1965    -0.1298 N.3     
   7 C7            -3.6218    -1.6531     0.0471 C.3     
   8 C8            -4.3632     0.5156     0.8461 C.3     
   9 C9            -5.8003    -0.0208     0.7525 C.3     
  10 O10           -5.7614    -1.4202     1.1165 O.3     
  11 C11           -5.1024    -2.0622     0.0003 C.3     
  12 C12            1.1582     2.2393     0.0183 C.ar    
  13 C13            2.2828     1.9472    -0.7651 C.ar    
  14 C14            1.1808     3.4027     0.7990 C.ar    
  15 C15            2.3011     4.2047     0.7700 C.ar    
  16 N16            3.3414     3.8896     0.0207 N.ar    
  17 C17            3.3601     2.8060    -0.7331 C.ar    
  18 C18            1.2661    -0.7689     0.4126 C.3     
  19 N19            1.6149    -0.7378     1.8392 N.3     
  20 C20            4.5784     2.5010    -1.5659 C.3     
  21 C21            2.3390     5.4588     1.6046 C.3     
  22 C22           -5.7366    -1.4051    -1.2486 C.3     
  23 C23           -6.2088    -0.0242    -0.7398 C.3     
  24 H24           -3.0788    -2.1551    -0.7537 H       
  25 H25           -3.1960    -1.9330     1.0106 H       
  26 H26           -3.9758     0.3483     1.8511 H       
  27 H27           -4.3566     1.5826     0.6233 H       
  28 H28           -6.4910     0.5474     1.3755 H       
  29 H29           -5.2289    -3.1447     0.0150 H       
  30 H30            2.3050     1.0626    -1.3842 H       
  31 H31            0.3331     3.6671     1.4137 H       
  32 H32            1.1184    -1.8017     0.0971 H       
  33 H33            2.0736    -0.3235    -0.1686 H       
  34 H34            2.4634    -1.2544     2.0154 H       
  35 H35            1.6940     0.2117     2.1715 H       
  36 H36            5.2715     1.8914    -0.9862 H       
  37 H37            4.2791     1.9579    -2.4623 H       
  38 H38            5.0659     3.4331    -1.8516 H       
  39 H39            2.7496     5.2287     2.5878 H       
  40 H40            2.9664     6.2030     1.1140 H       
  41 H41            1.3284     5.8520     1.7158 H       
  42 H42           -4.9945    -1.2887    -2.0384 H       
  43 H43           -6.5838    -1.9930    -1.6018 H       
  44 H44           -7.2898     0.0718    -0.8409 H       
  45 H45           -5.7005     0.7761    -1.2776 H       
@<TRIPOS>BOND
   1    1    2 2
   2    1   12 1
   3    1    5 1
   4    2    3 1
   5    2   18 1
   6    3    4 2
   7    4    5 1
   8    4    6 1
   9    6    7 1
  10    6    8 1
  11    7   11 1
  12    7   24 1
  13    7   25 1
  14    8    9 1
  15    8   26 1
  16    8   27 1
  17    9   10 1
  18    9   23 1
  19    9   28 1
  20   10   11 1
  21   11   22 1
  22   11   29 1
  23   12   13 ar
  24   12   14 ar
  25   13   17 ar
  26   13   30 1
  27   14   15 ar
  28   14   31 1
  29   15   16 ar
  30   15   21 1
  31   16   17 ar
  32   17   20 1
  33   18   19 1
  34   18   32 1
  35   18   33 1
  36   19   34 1
  37   19   35 1
  38   20   36 1
  39   20   37 1
  40   20   38 1
  41   21   39 1
  42   21   40 1
  43   21   41 1
  44   22   23 1
  45   22   42 1
  46   22   43 1
  47   23   44 1
  48   23   45 1

#	End of record

