#	Name: ASD03092136
#	Creating user name:	WinNT
#	Creation time:	15. 06. 2019 20:32

#	Modifying user name:	WinNT
#	Modification time:	15. 06. 2019 20:32

#	Program:	/corina/corina34_cracker 3.40 0067  02.08.2006

@<TRIPOS>MOLECULE
ASD03092136
  53   55    0    0    0
SMALL
NO_CHARGES


@<TRIPOS>ATOM
   1 N1             0.0708     1.0893    -0.1164 N.pl3   
   2 C2             0.0402    -0.2735    -0.0934 C.2     
   3 C3            -1.2688    -0.6548    -0.1750 C.2     
   4 C4            -2.0490     0.5059    -0.2492 C.2     
   5 N5            -1.2498     1.5469    -0.2081 N.2     
   6 N6            -3.4453     0.5490    -0.3446 N.pl3   
   7 C7            -4.0953     1.7716    -0.5302 C.ar    
   8 C8            -3.4703     2.7916    -1.2371 C.ar    
   9 C9            -4.1134     4.0004    -1.4204 C.ar    
  10 C10           -5.3790     4.1985    -0.9022 C.ar    
  11 C11           -5.3692     1.9672    -0.0134 C.ar    
  12 C12            1.2099    -1.1739     0.0024 C.ar    
  13 C13            1.2712     1.9265    -0.0505 C.3     
  14 C14            1.1301    -2.5045    -0.4241 C.ar    
  15 C15            2.2451    -3.3091    -0.3166 C.ar    
  16 N16            3.3741    -2.8398     0.1798 N.ar    
  17 C17            3.4921    -1.5924     0.5932 C.ar    
  18 C18            2.4288    -0.7173     0.5168 C.ar    
  19 C19            4.8083    -1.1156     1.1512 C.3     
  20 C20           -6.0084     3.1831    -0.1951 C.ar    
  21 C21            2.1729    -4.7440    -0.7716 C.3     
  22 O22            1.0837     3.0923    -0.8554 O.3     
  23 C23            1.5234     2.3432     1.3998 C.3     
  24 C24            2.8433     3.1121     1.4874 C.3     
  25 C25           -3.4331     5.1055    -2.1866 C.3     
  26 F26           -3.7516     4.9961    -3.5444 F       
  27 F27           -3.8686     6.3443    -1.7038 F       
  28 F28           -2.0476     5.0021    -2.0228 F       
  29 O29           -7.2529     3.3798     0.3142 O.3     
  30 C30           -7.8400     2.2917     1.0307 C.3     
  31 H31           -1.6366    -1.6703    -0.1816 H       
  32 H32           -3.9613    -0.2700    -0.2818 H       
  33 H33           -2.4812     2.6394    -1.6431 H       
  34 H34           -5.8790     5.1447    -1.0473 H       
  35 H35           -5.8591     1.1746     0.5327 H       
  36 H36            2.1278     1.3632    -0.4209 H       
  37 H37            0.2092    -2.8954    -0.8310 H       
  38 H38            2.5326     0.3025     0.8567 H       
  39 H39            5.4221    -0.7165     0.3437 H       
  40 H40            4.6282    -0.3352     1.8905 H       
  41 H41            5.3267    -1.9504     1.6230 H       
  42 H42            2.4513    -4.8059    -1.8236 H       
  43 H43            2.8588    -5.3483    -0.1780 H       
  44 H44            1.1563    -5.1154    -0.6423 H       
  45 H45            0.3368     3.6425    -0.5827 H       
  46 H46            0.7081     2.9809     1.7417 H       
  47 H47            1.5781     1.4548     2.0289 H       
  48 H48            3.0229     3.4091     2.5207 H       
  49 H49            3.6586     2.4745     1.1456 H       
  50 H50            2.7886     4.0006     0.8584 H       
  51 H51           -8.8304     2.5806     1.3826 H       
  52 H52           -7.9263     1.4274     0.3721 H       
  53 H53           -7.2113     2.0370     1.8839 H       
@<TRIPOS>BOND
   1    1    2 1
   2    1   13 1
   3    1    5 1
   4    2    3 2
   5    2   12 1
   6    3    4 1
   7    3   31 1
   8    4    5 2
   9    4    6 1
  10    6    7 1
  11    6   32 1
  12    7    8 ar
  13    7   11 ar
  14    8    9 ar
  15    8   33 1
  16    9   10 ar
  17    9   25 1
  18   10   20 ar
  19   10   34 1
  20   11   20 ar
  21   11   35 1
  22   12   14 ar
  23   12   18 ar
  24   13   22 1
  25   13   23 1
  26   13   36 1
  27   14   15 ar
  28   14   37 1
  29   15   16 ar
  30   15   21 1
  31   16   17 ar
  32   17   18 ar
  33   17   19 1
  34   18   38 1
  35   19   39 1
  36   19   40 1
  37   19   41 1
  38   20   29 1
  39   21   42 1
  40   21   43 1
  41   21   44 1
  42   22   45 1
  43   23   24 1
  44   23   46 1
  45   23   47 1
  46   24   48 1
  47   24   49 1
  48   24   50 1
  49   25   26 1
  50   25   27 1
  51   25   28 1
  52   29   30 1
  53   30   51 1
  54   30   52 1
  55   30   53 1

#	End of record

