#	Name: ASD01901106
#	Creating user name:	WinNT
#	Creation time:	15. 06. 2019 19:53

#	Modifying user name:	WinNT
#	Modification time:	15. 06. 2019 19:53

#	Program:	/corina/corina34_cracker 3.40 0067  02.08.2006

@<TRIPOS>MOLECULE
ASD01901106
  42   45    0    0    0
SMALL
NO_CHARGES


@<TRIPOS>ATOM
   1 C1            -0.0184     1.5028     0.0103 C.2     
   2 C2             0.0021    -0.0041     0.0020 C.3     
   3 O3            -1.3386    -0.4987     0.0122 O.3     
   4 C4            -1.4982    -1.8476     0.0064 C.ar    
   5 C5            -2.7829    -2.4029     0.0157 C.ar    
   6 C6            -2.9360    -3.7884     0.0093 C.ar    
   7 C7            -1.8226    -4.6039    -0.0062 C.ar    
   8 C8            -0.5540    -4.0515    -0.0154 C.ar    
   9 C9            -0.3903    -2.6787    -0.0144 C.ar    
  10 C10           -6.2198     0.0795     0.1658 C.ar    
  11 N11           -5.9005    -0.7302     1.1484 N.ar    
  12 C12           -4.8324    -1.5119     1.1189 C.ar    
  13 C13           -3.9738    -1.5230     0.0328 C.ar    
  14 C14           -4.2628    -0.6707    -1.0618 C.ar    
  15 C15           -3.4506    -0.6175    -2.1999 C.ar    
  16 C16           -3.7806     0.2225    -3.2217 C.ar    
  17 C17           -4.9147     1.0285    -3.1494 C.ar    
  18 C18           -5.7269     1.0021    -2.0565 C.ar    
  19 C19           -5.4177     0.1485    -0.9853 C.ar    
  20 C20            2.4725     1.5850    -0.0130 C.ar    
  21 C21            1.2453     2.2555     0.0023 C.ar    
  22 C22            1.2403     3.6588     0.0094 C.ar    
  23 C23            2.4551     4.3180     0.0009 C.ar    
  24 C24            3.6277     3.5799    -0.0142 C.ar    
  25 N25            3.6028     2.2592    -0.0206 N.ar    
  26 Cl26           5.1552     4.4048    -0.0255 Cl      
  27 O27           -1.0766     2.0947     0.0185 O.2     
  28 H28            0.5123    -0.3556    -0.8948 H       
  29 H29            0.5293    -0.3651     0.8851 H       
  30 H30           -3.9245    -4.2232     0.0167 H       
  31 H31           -1.9420    -5.6772    -0.0109 H       
  32 H32            0.3126    -4.6959    -0.0275 H       
  33 H33            0.6025    -2.2539    -0.0261 H       
  34 H34           -7.1059     0.6924     0.2409 H       
  35 H35           -4.6259    -2.1553     1.9614 H       
  36 H36           -2.5685    -1.2369    -2.2681 H       
  37 H37           -3.1535     0.2639    -4.1001 H       
  38 H38           -5.1533     1.6851    -3.9730 H       
  39 H39           -6.6023     1.6331    -2.0140 H       
  40 H40            2.4929     0.5052    -0.0142 H       
  41 H41            0.3113     4.2094     0.0209 H       
  42 H42            2.4900     5.3975     0.0056 H       
@<TRIPOS>BOND
   1    1    2 1
   2    1   21 1
   3    1   27 2
   4    2    3 1
   5    2   28 1
   6    2   29 1
   7    3    4 1
   8    4    5 ar
   9    4    9 ar
  10    5    6 ar
  11    5   13 1
  12    6    7 ar
  13    6   30 1
  14    7    8 ar
  15    7   31 1
  16    8    9 ar
  17    8   32 1
  18    9   33 1
  19   10   11 ar
  20   10   19 ar
  21   10   34 1
  22   11   12 ar
  23   12   13 ar
  24   12   35 1
  25   13   14 ar
  26   14   15 ar
  27   14   19 ar
  28   15   16 ar
  29   15   36 1
  30   16   17 ar
  31   16   37 1
  32   17   18 ar
  33   17   38 1
  34   18   19 ar
  35   18   39 1
  36   20   21 ar
  37   20   25 ar
  38   20   40 1
  39   21   22 ar
  40   22   23 ar
  41   22   41 1
  42   23   24 ar
  43   23   42 1
  44   24   25 ar
  45   24   26 1

#	End of record

