#	Name: ASD05490239
#	Creating user name:	WinNT
#	Creation time:	15. 06. 2019 21:01

#	Modifying user name:	WinNT
#	Modification time:	15. 06. 2019 21:01

#	Program:	/corina/corina34_cracker 3.40 0067  02.08.2006

@<TRIPOS>MOLECULE
ASD05490239
  64   67    0    0    0
SMALL
NO_CHARGES


@<TRIPOS>ATOM
   1 N1            -0.0140     1.3235    -0.0018 N.ar    
   2 C2             0.0026    -0.0005    -0.0086 C.ar    
   3 C3             1.1990    -0.7004    -0.0178 C.ar    
   4 C4             2.3953     0.0106    -0.0206 C.ar    
   5 C5             2.3404     1.4047    -0.0168 C.ar    
   6 C6             1.1047     2.0380    -0.0056 C.ar    
   7 N7             3.6186    -0.6479    -0.0229 N.3     
   8 C8             3.4706    -2.0318    -0.4926 C.3     
   9 C9             4.7908    -2.7480    -0.3696 C.ar    
  10 C10            5.1057    -3.4216     0.7954 C.ar    
  11 C11            6.3170    -4.0785     0.9083 C.ar    
  12 C12            7.2128    -4.0621    -0.1442 C.ar    
  13 C13            6.8974    -3.3890    -1.3099 C.ar    
  14 C14            5.6847    -2.7359    -1.4243 C.ar    
  15 N15            7.6154    -4.5166    -3.3392 N.3     
  16 C16            8.6869    -4.6695    -4.3316 C.3     
  17 N17            1.0388     3.4288     0.0012 N.pl3   
  18 O18           -1.1706    -0.6833    -0.0060 O.3     
  19 C19           -2.3717     0.0908     0.0041 C.3     
  20 C20           -3.5818    -0.8454     0.0055 C.3     
  21 N21            3.5364     2.1439    -0.0281 N.am    
  22 C22            4.6274     0.0692    -0.8097 C.3     
  23 C23            4.6764     1.5173    -0.3970 C.2     
  24 O24            5.7309     2.1170    -0.3961 O.2     
  25 C25            7.8743    -3.3707    -2.4572 C.3     
  26 C26           -4.8678    -0.0166     0.0164 C.3     
  27 C27           -6.0780    -0.9528     0.0178 C.3     
  28 C28            8.4604    -5.9519    -5.1354 C.3     
  29 C29            7.0995    -5.8774    -5.8333 C.3     
  30 C30            6.0061    -5.6696    -4.7818 C.3     
  31 C31            6.3038    -4.3954    -3.9882 C.3     
  32 H32            1.2028    -1.7804    -0.0225 H       
  33 H33            2.7222    -2.5430     0.1130 H       
  34 H34            3.1542    -2.0297    -1.5357 H       
  35 H35            4.4058    -3.4344     1.6178 H       
  36 H36            6.5634    -4.6043     1.8189 H       
  37 H37            8.1593    -4.5746    -0.0557 H       
  38 H38            5.4383    -2.2102    -2.3350 H       
  39 H39            8.6825    -3.8129    -5.0056 H       
  40 H40            9.6488    -4.7255    -3.8219 H       
  41 H41            1.8549     3.9530    -0.0019 H       
  42 H42            0.1768     3.8735     0.0091 H       
  43 H43           -2.3941     0.7150     0.8974 H       
  44 H44           -2.4033     0.7241    -0.8825 H       
  45 H45           -3.5594    -1.4696    -0.8877 H       
  46 H46           -3.5502    -1.4787     0.8922 H       
  47 H47            3.5435     3.0810     0.2224 H       
  48 H48            5.6040    -0.3863    -0.6458 H       
  49 H49            4.3737     0.0035    -1.8678 H       
  50 H50            7.7561    -2.4449    -3.0203 H       
  51 H51            8.8912    -3.4329    -2.0697 H       
  52 H52           -4.8903     0.6076     0.9097 H       
  53 H53           -4.8994     0.6167    -0.8702 H       
  54 H54           -6.9941    -0.3623     0.0256 H       
  55 H55           -6.0555    -1.5770    -0.8755 H       
  56 H56           -6.0464    -1.5860     0.9045 H       
  57 H57            9.2472    -6.0570    -5.8824 H       
  58 H58            8.4784    -6.8103    -4.4638 H       
  59 H59            7.0947    -5.0422    -6.5338 H       
  60 H60            6.9150    -6.8068    -6.3720 H       
  61 H61            5.0394    -5.5730    -5.2761 H       
  62 H62            5.9855    -6.5236    -4.1046 H       
  63 H63            5.5348    -4.2523    -3.2291 H       
  64 H64            6.3106    -3.5401    -4.6639 H       
@<TRIPOS>BOND
   1    1    2 ar
   2    1    6 ar
   3    2    3 ar
   4    2   18 1
   5    3    4 ar
   6    3   32 1
   7    4    5 ar
   8    4    7 1
   9    5    6 ar
  10    5   21 1
  11    6   17 1
  12    7    8 1
  13    7   22 1
  14    8    9 1
  15    8   33 1
  16    8   34 1
  17    9   10 ar
  18    9   14 ar
  19   10   11 ar
  20   10   35 1
  21   11   12 ar
  22   11   36 1
  23   12   13 ar
  24   12   37 1
  25   13   14 ar
  26   13   25 1
  27   14   38 1
  28   15   16 1
  29   15   25 1
  30   15   31 1
  31   16   28 1
  32   16   39 1
  33   16   40 1
  34   17   41 1
  35   17   42 1
  36   18   19 1
  37   19   20 1
  38   19   43 1
  39   19   44 1
  40   20   26 1
  41   20   45 1
  42   20   46 1
  43   21   23 am
  44   21   47 1
  45   22   23 1
  46   22   48 1
  47   22   49 1
  48   23   24 2
  49   25   50 1
  50   25   51 1
  51   26   27 1
  52   26   52 1
  53   26   53 1
  54   27   54 1
  55   27   55 1
  56   27   56 1
  57   28   29 1
  58   28   57 1
  59   28   58 1
  60   29   30 1
  61   29   59 1
  62   29   60 1
  63   30   31 1
  64   30   61 1
  65   30   62 1
  66   31   63 1
  67   31   64 1

#	End of record

