#	Name: ASD03331608
#	Creating user name:	WinNT
#	Creation time:	15. 06. 2019 20:39

#	Modifying user name:	WinNT
#	Modification time:	15. 06. 2019 20:39

#	Program:	/corina/corina34_cracker 3.40 0067  02.08.2006

@<TRIPOS>MOLECULE
ASD03331608
  66   68    0    0    0
SMALL
NO_CHARGES


@<TRIPOS>ATOM
   1 C1            -0.1442     0.9259     2.1047 C.ar    
   2 C2            -0.0356    -0.4987     1.7214 C.2     
   3 N3            -0.9496    -1.4684     1.9934 N.pl3   
   4 C4            -0.4845    -2.6302     1.4760 C.2     
   5 C5             0.7119    -2.3639     0.8924 C.2     
   6 N6             0.9585    -1.0430     1.0545 N.2     
   7 C7             1.5807    -3.3345     0.2035 C.2     
   8 N8             2.7489    -2.9306    -0.3337 N.am    
   9 C9            -2.2295    -1.3338     2.7167 C.3     
  10 C10           -2.1111    -2.1794     3.9952 C.3     
  11 C11           -2.3302    -3.6422     3.6955 C.3     
  12 N12           -1.2706    -4.3283     2.9871 N.3     
  13 C13           -1.2088    -3.9611     1.5594 C.3     
  14 C14           -0.8268     1.2879     3.2663 C.ar    
  15 O15            1.2436    -4.5001     0.1197 O.2     
  16 C16            3.6127    -3.8956    -1.0185 C.3     
  17 C17           -1.3835    -5.7836     3.1521 C.3     
  18 C18           -2.5579    -4.3676     5.0232 C.3     
  19 C19            3.1623    -4.0404    -2.4735 C.3     
  20 C20            5.0385    -3.4092    -0.9801 C.2     
  21 C21            3.2077    -2.6738    -3.1599 C.3     
  22 C22            4.0961    -5.0086    -3.2025 C.3     
  23 C23            1.7325    -4.5837    -2.5131 C.3     
  24 N24            6.0513    -4.2738    -1.1876 N.am    
  25 C25           -0.9251     2.6197     3.6194 C.ar    
  26 C26           -0.3467     3.5955     2.8201 C.ar    
  27 C27            0.3313     3.2392     1.6656 C.ar    
  28 C28            0.4406     1.9114     1.3085 C.ar    
  29 F29           -0.4454     4.8971     3.1685 F       
  30 F30           -1.5856     2.9727     4.7439 F       
  31 O31            5.2746    -2.2397    -0.7625 O.2     
  32 C32            8.3846    -4.9919    -1.3353 C.3     
  33 C33            7.4386    -3.8242    -1.0480 C.3     
  34 H34            3.0178    -2.0010    -0.2669 H       
  35 H35           -2.4025    -0.2893     2.9760 H       
  36 H36           -3.0471    -1.7054     2.0990 H       
  37 H37           -1.1171    -2.0461     4.4222 H       
  38 H38           -2.8575    -1.8456     4.7160 H       
  39 H39           -3.2426    -3.7321     3.1059 H       
  40 H40           -2.2168    -3.8618     1.1567 H       
  41 H41           -0.6580    -4.7200     1.0036 H       
  42 H42           -1.2775     0.5285     3.8880 H       
  43 H43            3.5449    -4.8622    -0.5193 H       
  44 H44           -2.3817    -6.1064     2.8563 H       
  45 H45           -0.6411    -6.2789     2.5262 H       
  46 H46           -1.2115    -6.0454     4.1961 H       
  47 H47           -3.3515    -3.8680     5.5788 H       
  48 H48           -2.8459    -5.4006     4.8281 H       
  49 H49           -1.6386    -4.3511     5.6086 H       
  50 H50            4.2263    -2.2867    -3.1317 H       
  51 H51            2.8869    -2.7770    -4.1965 H       
  52 H52            2.5425    -1.9840    -2.6406 H       
  53 H53            4.0345    -5.9924    -2.7374 H       
  54 H54            3.7987    -5.0821    -4.2486 H       
  55 H55            5.1204    -4.6411    -3.1410 H       
  56 H56            1.0672    -3.8939    -1.9938 H       
  57 H57            1.4116    -4.6869    -3.5497 H       
  58 H58            1.7001    -5.5573    -2.0241 H       
  59 H59            5.8617    -5.1939    -1.4294 H       
  60 H60            0.7792     4.0024     1.0465 H       
  61 H61            0.9696     1.6356     0.4082 H       
  62 H62            8.1912    -5.7985    -0.6281 H       
  63 H63            8.2197    -5.3517    -2.3509 H       
  64 H64            9.4167    -4.6573    -1.2314 H       
  65 H65            7.6319    -3.0175    -1.7552 H       
  66 H66            7.6035    -3.4643    -0.0324 H       
@<TRIPOS>BOND
   1    1    2 1
   2    1   14 ar
   3    1   28 ar
   4    2    3 1
   5    2    6 2
   6    3    4 1
   7    3    9 1
   8    4    5 2
   9    4   13 1
  10    5    6 1
  11    5    7 1
  12    7    8 am
  13    7   15 2
  14    8   16 1
  15    8   34 1
  16    9   10 1
  17    9   35 1
  18    9   36 1
  19   10   11 1
  20   10   37 1
  21   10   38 1
  22   11   12 1
  23   11   18 1
  24   11   39 1
  25   12   13 1
  26   12   17 1
  27   13   40 1
  28   13   41 1
  29   14   25 ar
  30   14   42 1
  31   16   19 1
  32   16   20 1
  33   16   43 1
  34   17   44 1
  35   17   45 1
  36   17   46 1
  37   18   47 1
  38   18   48 1
  39   18   49 1
  40   19   21 1
  41   19   22 1
  42   19   23 1
  43   20   24 am
  44   20   31 2
  45   21   50 1
  46   21   51 1
  47   21   52 1
  48   22   53 1
  49   22   54 1
  50   22   55 1
  51   23   56 1
  52   23   57 1
  53   23   58 1
  54   24   33 1
  55   24   59 1
  56   25   26 ar
  57   25   30 1
  58   26   27 ar
  59   26   29 1
  60   27   28 ar
  61   27   60 1
  62   28   61 1
  63   32   33 1
  64   32   62 1
  65   32   63 1
  66   32   64 1
  67   33   65 1
  68   33   66 1

#	End of record

