#	Name: ASD01915108
#	Creating user name:	WinNT
#	Creation time:	15. 06. 2019 20:04

#	Modifying user name:	WinNT
#	Modification time:	15. 06. 2019 20:04

#	Program:	/corina/corina34_cracker 3.40 0067  02.08.2006

@<TRIPOS>MOLECULE
ASD01915108
  38   41    0    0    0
SMALL
NO_CHARGES


@<TRIPOS>ATOM
   1 C1            -0.0169     1.3924     0.0097 C.ar    
   2 C2             0.0021    -0.0041     0.0020 C.ar    
   3 N3            -1.1430    -0.6903     0.0092 N.ar    
   4 C4            -2.3136    -0.0965     0.0236 C.ar    
   5 C5            -2.4136     1.2863     0.0320 C.ar    
   6 C6            -1.2657     2.0479     0.0305 C.ar    
   7 C7             1.3286     1.9586    -0.0001 C.2     
   8 C8             2.3057     1.0550    -0.0143 C.2     
   9 S9             1.6661    -0.5765    -0.0169 S.3     
  10 C10            1.5853     3.4182     0.0053 C.ar    
  11 C11            1.2153     4.1896     1.1063 C.ar    
  12 C12            1.4570     5.5481     1.1063 C.ar    
  13 C13            2.0652     6.1455     0.0155 C.ar    
  14 C14            2.4346     5.3842    -1.0803 C.ar    
  15 C15            2.2028     4.0241    -1.0883 C.ar    
  16 Cl16           2.3654     7.8553     0.0216 Cl      
  17 S17            4.0231     1.4489    -0.0291 S.o2    
  18 C18            4.5479     1.5569     1.6495 C.ar    
  19 O19            4.6881     0.3233    -0.5858 O.2     
  20 O20            4.1295     2.7595    -0.5679 O.2     
  21 C21            5.0200     0.4337     2.2962 C.ar    
  22 C22            5.4359     0.5197     3.6265 C.ar    
  23 C23            5.3710     1.7437     4.2943 C.ar    
  24 C24            4.8960     2.8617     3.6352 C.ar    
  25 C25            4.4906     2.7693     2.3135 C.ar    
  26 F26            4.8317     4.0477     4.2791 F       
  27 C27            5.9264    -0.6432     4.3030 C.1     
  28 N28            6.3156    -1.5658     4.8397 N.1     
  29 H29           -3.2129    -0.6945     0.0286 H       
  30 H30           -3.3830     1.7623     0.0435 H       
  31 H31           -1.3210     3.1265     0.0370 H       
  32 H32            0.7401     3.7247     1.9575 H       
  33 H33            1.1709     6.1465     1.9586 H       
  34 H34            2.9088     5.8552    -1.9287 H       
  35 H35            2.4916     3.4311    -1.9435 H       
  36 H36            5.0676    -0.5107     1.7746 H       
  37 H37            5.6907     1.8168     5.3233 H       
  38 H38            4.1201     3.6454     1.8022 H       
@<TRIPOS>BOND
   1    1    2 ar
   2    1    7 1
   3    1    6 ar
   4    2    3 ar
   5    2    9 1
   6    3    4 ar
   7    4    5 ar
   8    4   29 1
   9    5    6 ar
  10    5   30 1
  11    6   31 1
  12    7    8 2
  13    7   10 1
  14    8    9 1
  15    8   17 1
  16   10   11 ar
  17   10   15 ar
  18   11   12 ar
  19   11   32 1
  20   12   13 ar
  21   12   33 1
  22   13   14 ar
  23   13   16 1
  24   14   15 ar
  25   14   34 1
  26   15   35 1
  27   17   18 1
  28   17   19 2
  29   17   20 2
  30   18   21 ar
  31   18   25 ar
  32   21   22 ar
  33   21   36 1
  34   22   23 ar
  35   22   27 1
  36   23   24 ar
  37   23   37 1
  38   24   25 ar
  39   24   26 1
  40   25   38 1
  41   27   28 3

#	End of record

