#	Name: ASD01812773
#	Creating user name:	WinNT
#	Creation time:	15. 06. 2019 19:29

#	Modifying user name:	WinNT
#	Modification time:	15. 06. 2019 19:29

#	Program:	/corina/corina34_cracker 3.40 0067  02.08.2006

@<TRIPOS>MOLECULE
ASD01812773
  51   55    0    0    0
SMALL
NO_CHARGES


@<TRIPOS>ATOM
   1 N1             0.0027     1.3186    -0.2236 N.ar    
   2 C2             0.0319     0.0060    -0.3476 C.ar    
   3 C3             1.2340    -0.6841    -0.3698 C.ar    
   4 C4             2.4113     0.0206    -0.2600 C.ar    
   5 C5             2.3614     1.4132    -0.1291 C.ar    
   6 C6             1.1073     2.0396    -0.1149 C.ar    
   7 C7             3.8682    -0.3580    -0.2438 C.3     
   8 N8             4.6151     0.8976    -0.0974 N.am    
   9 C9             3.7395     1.9163    -0.0317 C.2     
  10 C10            6.0736     1.0204    -0.0329 C.3     
  11 C11            6.6248     1.1969    -1.4243 C.ar    
  12 C12            6.7719     2.4672    -1.9512 C.ar    
  13 C13            7.2763     2.6345    -3.2251 C.ar    
  14 C14            7.6379     1.5211    -3.9801 C.ar    
  15 C15            7.4881     0.2440    -3.4444 C.ar    
  16 C16            6.9872     0.0882    -2.1677 C.ar    
  17 O17            1.0259     3.3855     0.0104 O.3     
  18 O18            4.0442     3.0870     0.0904 O.2     
  19 C19            8.1805     1.6950    -5.3512 C.2     
  20 C20            8.5670     0.6974    -6.1978 C.2     
  21 C21            8.3842     2.9196    -6.0166 C.2     
  22 N22            8.8733     2.6618    -7.2006 N.2     
  23 N23            8.9974     1.2739    -7.3381 N.pl3   
  24 C24            9.5065     0.5698    -8.5176 C.3     
  25 C25           -0.2022     3.9618    -0.0794 C.ar    
  26 C26           -2.7152     5.1354    -0.2430 C.ar    
  27 C27           -1.9096     5.0460    -1.3808 C.ar    
  28 C28           -0.6476     4.4549    -1.2928 C.ar    
  29 C29           -1.0128     4.0502     1.0475 C.ar    
  30 C30           -2.2650     4.6360     0.9609 C.ar    
  31 F31           -0.5776     3.5628     2.2300 F       
  32 C32           -2.3745     5.5637    -2.6324 C.1     
  33 N33           -2.7432     5.9744    -3.6253 N.1     
  34 H34           -0.8958    -0.5403    -0.4329 H       
  35 H35            1.2467    -1.7593    -0.4714 H       
  36 H36            4.0747    -1.0175     0.5991 H       
  37 H37            4.1385    -0.8481    -1.1791 H       
  38 H38            6.3388     1.8851     0.5754 H       
  39 H39            6.4947     0.1194     0.4132 H       
  40 H40            6.4912     3.3298    -1.3650 H       
  41 H41            7.3900     3.6269    -3.6359 H       
  42 H42            7.7669    -0.6225    -4.0256 H       
  43 H43            6.8742    -0.9013    -1.7500 H       
  44 H44            8.5345    -0.3623    -5.9917 H       
  45 H45            8.1729     3.9007    -5.6177 H       
  46 H46           10.5853     0.4427    -8.4274 H       
  47 H47            9.0303    -0.4080    -8.5906 H       
  48 H48            9.2826     1.1507    -9.4123 H       
  49 H49           -3.6917     5.5922    -0.3071 H       
  50 H50           -0.0209     4.3833    -2.1694 H       
  51 H51           -2.8888     4.7056     1.8398 H       
@<TRIPOS>BOND
   1    1    2 ar
   2    1    6 ar
   3    2    3 ar
   4    2   34 1
   5    3    4 ar
   6    3   35 1
   7    4    7 1
   8    4    5 ar
   9    5    6 ar
  10    5    9 1
  11    6   17 1
  12    7    8 1
  13    7   36 1
  14    7   37 1
  15    8    9 am
  16    8   10 1
  17    9   18 2
  18   10   11 1
  19   10   38 1
  20   10   39 1
  21   11   12 ar
  22   11   16 ar
  23   12   13 ar
  24   12   40 1
  25   13   14 ar
  26   13   41 1
  27   14   15 ar
  28   14   19 1
  29   15   16 ar
  30   15   42 1
  31   16   43 1
  32   17   25 1
  33   19   21 1
  34   19   20 2
  35   20   23 1
  36   20   44 1
  37   21   22 2
  38   21   45 1
  39   22   23 1
  40   23   24 1
  41   24   46 1
  42   24   47 1
  43   24   48 1
  44   25   29 ar
  45   25   28 ar
  46   26   27 ar
  47   26   30 ar
  48   26   49 1
  49   27   28 ar
  50   27   32 1
  51   28   50 1
  52   29   30 ar
  53   29   31 1
  54   30   51 1
  55   32   33 3

#	End of record

