#	Name: ASD01890114
#	Creating user name:	WinNT
#	Creation time:	15. 06. 2019 19:50

#	Modifying user name:	WinNT
#	Modification time:	15. 06. 2019 19:50

#	Program:	/corina/corina34_cracker 3.40 0067  02.08.2006

@<TRIPOS>MOLECULE
ASD01890114
  38   40    0    0    0
SMALL
NO_CHARGES


@<TRIPOS>ATOM
   1 C1            -0.0178     1.4583     0.0101 C.2     
   2 C2             0.0021    -0.0041     0.0020 C.2     
   3 C3             1.1807    -0.6633    -0.0128 C.2     
   4 O4             1.0283     2.0813     0.0034 O.2     
   5 C5             1.2006    -2.1343    -0.0209 C.ar    
   6 C6             2.4194    -2.8209    -0.0362 C.ar    
   7 C7             2.4295    -4.1996    -0.0437 C.ar    
   8 C8             1.2382    -4.9042    -0.0367 C.ar    
   9 C9             0.0281    -4.2323    -0.0215 C.ar    
  10 C10            0.0010    -2.8539    -0.0075 C.ar    
  11 C11           -1.3199     3.5660     0.0277 C.ar    
  12 C12           -1.3071     2.1795     0.0201 C.ar    
  13 C13           -2.5126     1.4544     0.0214 C.ar    
  14 C14           -3.7090     2.0945     0.0301 C.ar    
  15 C15           -3.7553     3.5014     0.0384 C.ar    
  16 C16           -4.9816     4.1833     0.0469 C.ar    
  17 C17           -4.9939     5.5601     0.0545 C.ar    
  18 C18           -3.7978     6.2859     0.0538 C.ar    
  19 C19           -2.5962     5.6510     0.0456 C.ar    
  20 C20           -2.5464     4.2444     0.0377 C.ar    
  21 O21           -6.1803     6.2210     0.0622 O.3     
  22 C22           -6.1275     7.6490     0.0699 C.3     
  23 H23           -0.9258    -0.5567     0.0079 H       
  24 H24            2.1085    -0.1107    -0.0187 H       
  25 H25            3.3498    -2.2725    -0.0425 H       
  26 H26            3.3696    -4.7312    -0.0556 H       
  27 H27            1.2528    -5.9841    -0.0433 H       
  28 H28           -0.8971    -4.7893    -0.0160 H       
  29 H29           -0.9439    -2.3310     0.0089 H       
  30 H30           -0.3921     4.1188     0.0308 H       
  31 H31           -2.4855     0.3747     0.0151 H       
  32 H32           -4.6262     1.5243     0.0302 H       
  33 H33           -5.9101     3.6316     0.0471 H       
  34 H34           -3.8298     7.3655     0.0595 H       
  35 H35           -1.6812     6.2247     0.0452 H       
  36 H36           -7.1410     8.0501     0.0756 H       
  37 H37           -5.5975     7.9882     0.9599 H       
  38 H38           -5.6037     7.9980    -0.8200 H       
@<TRIPOS>BOND
   1    1    2 1
   2    1    4 2
   3    1   12 1
   4    2    3 2
   5    2   23 1
   6    3    5 1
   7    3   24 1
   8    5    6 ar
   9    5   10 ar
  10    6    7 ar
  11    6   25 1
  12    7    8 ar
  13    7   26 1
  14    8    9 ar
  15    8   27 1
  16    9   10 ar
  17    9   28 1
  18   10   29 1
  19   11   12 ar
  20   11   20 ar
  21   11   30 1
  22   12   13 ar
  23   13   14 ar
  24   13   31 1
  25   14   15 ar
  26   14   32 1
  27   15   16 ar
  28   15   20 ar
  29   16   17 ar
  30   16   33 1
  31   17   18 ar
  32   17   21 1
  33   18   19 ar
  34   18   34 1
  35   19   20 ar
  36   19   35 1
  37   21   22 1
  38   22   36 1
  39   22   37 1
  40   22   38 1

#	End of record

