#	Name: ASD01230603
#	Creating user name:	WinNT
#	Creation time:	15. 06. 2019 19:14

#	Modifying user name:	WinNT
#	Modification time:	15. 06. 2019 19:14

#	Program:	/corina/corina34_cracker 3.40 0067  02.08.2006

@<TRIPOS>MOLECULE
ASD01230603
  44   47    0    0    0
SMALL
NO_CHARGES


@<TRIPOS>ATOM
   1 S1            -0.5338     1.3010    -1.6368 S.o2    
   2 N2            -0.3147    -0.2143    -1.0077 N.am    
   3 C3             0.8528    -0.8027    -1.0043 C.2     
   4 N4             2.0097    -0.2723    -1.4975 N.pl3   
   5 C5             2.1044     1.0267    -2.1620 C.3     
   6 C6             1.1324     2.0267    -1.5278 C.3     
   7 C7             0.9123    -2.1596    -0.4112 C.2     
   8 N8             2.0599    -2.7880    -0.3490 N.2     
   9 C9             3.1786    -2.2207    -0.8122 C.2     
  10 C10            3.1743    -1.0021    -1.3722 C.2     
  11 N11           -0.2391    -2.7597     0.0750 N.pl3   
  12 O12           -0.8981     1.0761    -2.9918 O.2     
  13 O13           -1.4222     1.9394    -0.7299 O.2     
  14 C14           -0.4000    -4.2193     0.0271 C.3     
  15 C15           -1.7209    -4.5470    -0.6763 C.3     
  16 C16           -2.8644    -3.8113     0.0260 C.3     
  17 C17           -2.6319    -2.3012    -0.0619 C.3     
  18 C18           -1.3190    -1.9486     0.6535 C.3     
  19 C19           -4.1699    -4.1581    -0.6422 C.ar    
  20 C20           -5.1780    -4.7647     0.0833 C.ar    
  21 C21           -6.3755    -5.0829    -0.5296 C.ar    
  22 C22           -6.5649    -4.7939    -1.8681 C.ar    
  23 C23           -5.5571    -4.1864    -2.5935 C.ar    
  24 C24           -4.3613    -3.8643    -1.9794 C.ar    
  25 H25            3.1221     1.4054    -2.0681 H       
  26 H26            1.8611     0.9090    -3.2180 H       
  27 H27            1.1626     2.9703    -2.0726 H       
  28 H28            1.3979     2.1913    -0.4835 H       
  29 H29            4.1116    -2.7589    -0.7334 H       
  30 H30            4.1020    -0.5828    -1.7326 H       
  31 H31            0.4284    -4.6602    -0.5274 H       
  32 H32           -0.4173    -4.6185     1.0412 H       
  33 H33           -1.6678    -4.2276    -1.7171 H       
  34 H34           -1.8990    -5.6214    -0.6336 H       
  35 H35           -2.9013    -4.1127     1.0729 H       
  36 H36           -2.5702    -2.0030    -1.1085 H       
  37 H37           -3.4585    -1.7773     0.4180 H       
  38 H38           -1.4140    -2.1628     1.7180 H       
  39 H39           -1.0972    -0.8911     0.5099 H       
  40 H40           -5.0300    -4.9905     1.1291 H       
  41 H41           -7.1628    -5.5575     0.0371 H       
  42 H42           -7.5002    -5.0431    -2.3472 H       
  43 H43           -5.7050    -3.9609    -3.6393 H       
  44 H44           -3.5739    -3.3897    -2.5461 H       
@<TRIPOS>BOND
   1    1    2 am
   2    1    6 1
   3    1   12 2
   4    1   13 2
   5    2    3 2
   6    3    4 1
   7    3    7 1
   8    4    5 1
   9    4   10 1
  10    5    6 1
  11    5   25 1
  12    5   26 1
  13    6   27 1
  14    6   28 1
  15    7    8 2
  16    7   11 1
  17    8    9 1
  18    9   10 2
  19    9   29 1
  20   10   30 1
  21   11   14 1
  22   11   18 1
  23   14   15 1
  24   14   31 1
  25   14   32 1
  26   15   16 1
  27   15   33 1
  28   15   34 1
  29   16   17 1
  30   16   19 1
  31   16   35 1
  32   17   18 1
  33   17   36 1
  34   17   37 1
  35   18   38 1
  36   18   39 1
  37   19   20 ar
  38   19   24 ar
  39   20   21 ar
  40   20   40 1
  41   21   22 ar
  42   21   41 1
  43   22   23 ar
  44   22   42 1
  45   23   24 ar
  46   23   43 1
  47   24   44 1

#	End of record

