#	Name: ASD05872040
#	Creating user name:	WinNT
#	Creation time:	15. 06. 2019 21:04

#	Modifying user name:	WinNT
#	Modification time:	15. 06. 2019 21:04

#	Program:	/corina/corina34_cracker 3.40 0067  02.08.2006

@<TRIPOS>MOLECULE
ASD05872040
  56   59    0    0    0
SMALL
NO_CHARGES


@<TRIPOS>ATOM
   1 C1            -0.4651     2.8287    -1.3156 C.ar    
   2 C2            -0.6059     1.4412    -1.3379 C.ar    
   3 C3            -1.8634     0.8793    -1.4813 C.ar    
   4 C4            -2.9796     1.6959    -1.6025 C.ar    
   5 C5            -2.8415     3.0718    -1.5810 C.ar    
   6 C6            -1.5940     3.6420    -1.4328 C.ar    
   7 C7             0.8738     3.4361    -1.1622 C.2     
   8 N8             1.2103     4.7495    -1.4068 N.pl3   
   9 N9             1.9659     2.8271    -0.7618 N.2     
  10 N10            2.9493     3.6540    -0.7441 N.2     
  11 C11            2.5465     4.8446    -1.1292 C.2     
  12 C12            0.3612     5.7741    -1.8486 C.ar    
  13 C13            0.0960     6.8605    -1.0260 C.ar    
  14 C14           -0.2112     5.7066    -3.1116 C.ar    
  15 C15           -1.0473     6.7171    -3.5445 C.ar    
  16 C16           -1.3146     7.7962    -2.7205 C.ar    
  17 C17           -0.7407     7.8685    -1.4633 C.ar    
  18 Cl18          -2.3655     9.0650    -3.2677 Cl      
  19 S19            3.5415     6.2926    -1.2623 S.3     
  20 C20            5.1396     5.6253    -0.7359 C.3     
  21 C21            6.1766     6.7181    -0.7716 C.2     
  22 C22            7.5635     6.4271    -0.3860 C.ar    
  23 O23            5.8659     7.8380    -1.1188 O.2     
  24 C24            7.9244     5.1355     0.0150 C.ar    
  25 C25            9.2256     4.8655     0.3761 C.ar    
  26 C26           10.1823     5.8717     0.3436 C.ar    
  27 C27            9.8305     7.1618    -0.0545 C.ar    
  28 C28            8.5304     7.4400    -0.4239 C.ar    
  29 O29           -2.0050    -0.4722    -1.5040 O.3     
  30 C30           -3.3310    -0.9831    -1.6549 C.3     
  31 O31           10.7706     8.1442    -0.0838 O.3     
  32 S32           10.8275     8.9846     1.1838 S.o2    
  33 O33           11.6173    10.1650     0.8694 O.co2   
  34 O34            9.4543     9.3218     1.5256 O.co2   
  35 O35           11.4578     8.1620     2.2045 O.co2   
  36 O36           11.4633     5.5993     0.7007 O.3     
  37 S37           12.3192     5.0531    -0.4331 S.o2    
  38 O38           13.5296     4.5212     0.1738 O.co2   
  39 O39           11.5361     4.0168    -1.0880 O.co2   
  40 O40           12.5996     6.1696    -1.3224 O.co2   
  41 H41            0.2632     0.8069    -1.2439 H       
  42 H42           -3.9592     1.2551    -1.7143 H       
  43 H43           -3.7136     3.7018    -1.6761 H       
  44 H44           -1.4898     4.7168    -1.4160 H       
  45 H45            0.5434     6.9172    -0.0446 H       
  46 H46           -0.0025     4.8648    -3.7552 H       
  47 H47           -1.4925     6.6651    -4.5271 H       
  48 H48           -0.9508     8.7117    -0.8220 H       
  49 H49            5.0548     5.2378     0.2794 H       
  50 H50            5.4365     4.8205    -1.4083 H       
  51 H51            7.1825     4.3511     0.0416 H       
  52 H52            9.5028     3.8686     0.6857 H       
  53 H53            8.2570     8.4382    -0.7326 H       
  54 H54           -3.3023    -2.0728    -1.6572 H       
  55 H55           -3.9499    -0.6377    -0.8268 H       
  56 H56           -3.7520    -0.6287    -2.5957 H       
@<TRIPOS>BOND
   1    1    2 ar
   2    1    7 1
   3    1    6 ar
   4    2    3 ar
   5    2   41 1
   6    3    4 ar
   7    3   29 1
   8    4    5 ar
   9    4   42 1
  10    5    6 ar
  11    5   43 1
  12    6   44 1
  13    7    8 1
  14    7    9 2
  15    8   12 1
  16    8   11 1
  17    9   10 1
  18   10   11 2
  19   11   19 1
  20   12   13 ar
  21   12   14 ar
  22   13   17 ar
  23   13   45 1
  24   14   15 ar
  25   14   46 1
  26   15   16 ar
  27   15   47 1
  28   16   17 ar
  29   16   18 1
  30   17   48 1
  31   19   20 1
  32   20   21 1
  33   20   49 1
  34   20   50 1
  35   21   22 1
  36   21   23 2
  37   22   24 ar
  38   22   28 ar
  39   24   25 ar
  40   24   51 1
  41   25   26 ar
  42   25   52 1
  43   26   27 ar
  44   26   36 1
  45   27   28 ar
  46   27   31 1
  47   28   53 1
  48   29   30 1
  49   30   54 1
  50   30   55 1
  51   30   56 1
  52   31   32 1
  53   32   33 ar
  54   32   34 ar
  55   32   35 ar
  56   36   37 1
  57   37   38 ar
  58   37   39 ar
  59   37   40 ar

#	End of record

