#	Name: ASD05303003
#	Creating user name:	WinNT
#	Creation time:	15. 06. 2019 20:58

#	Modifying user name:	WinNT
#	Modification time:	15. 06. 2019 20:58

#	Program:	/corina/corina34_cracker 3.40 0067  02.08.2006

@<TRIPOS>MOLECULE
ASD05303003
  36   39    0    0    0
SMALL
NO_CHARGES


@<TRIPOS>ATOM
   1 C1            -0.0167     1.3776     0.0096 C.ar    
   2 C2             0.0021    -0.0041     0.0020 C.ar    
   3 C3             1.2096    -0.6806    -0.0113 C.ar    
   4 C4             2.3968     0.0304    -0.0171 C.ar    
   5 C5             2.3812     1.4239    -0.0128 C.ar    
   6 C6             1.1680     2.0925     0.0021 C.ar    
   7 O7             3.5435     2.1259    -0.0264 O.3     
   8 N8             3.6304    -0.6416    -0.0224 N.pl3   
   9 C9             4.7118     1.4974     0.2641 C.ar    
  10 C10            4.7832     0.1057     0.2705 C.ar    
  11 C11            5.9770    -0.5302     0.5634 C.ar    
  12 C12            7.1036     0.2201     0.8530 C.ar    
  13 C13            7.0353     1.6002     0.8496 C.ar    
  14 C14            5.8441     2.2401     0.5562 C.ar    
  15 C15            3.7117    -2.0732    -0.3226 C.3     
  16 C16            3.8963    -2.2657    -1.8059 C.ar    
  17 C17            5.1689    -2.3164    -2.3432 C.ar    
  18 C18            5.3382    -2.4929    -3.7037 C.ar    
  19 C19            4.2349    -2.6192    -4.5269 C.ar    
  20 C20            2.9623    -2.5693    -3.9894 C.ar    
  21 C21            2.7931    -2.3971    -2.6283 C.ar    
  22 H22           -0.9607     1.9021     0.0169 H       
  23 H23           -0.9260    -0.5564     0.0068 H       
  24 H24            1.2251    -1.7605    -0.0167 H       
  25 H25            1.1468     3.1723     0.0076 H       
  26 H26            6.0294    -1.6089     0.5663 H       
  27 H27            8.0365    -0.2735     1.0822 H       
  28 H28            7.9161     2.1823     1.0770 H       
  29 H29            5.7971     3.3190     0.5547 H       
  30 H30            4.5584    -2.5083     0.2083 H       
  31 H31            2.7921    -2.5641    -0.0042 H       
  32 H32            6.0310    -2.2178    -1.7001 H       
  33 H33            6.3325    -2.5319    -4.1236 H       
  34 H34            4.3671    -2.7564    -5.5899 H       
  35 H35            2.1002    -2.6676    -4.6326 H       
  36 H36            1.7988    -2.3582    -2.2084 H       
@<TRIPOS>BOND
   1    1    2 ar
   2    1    6 ar
   3    1   22 1
   4    2    3 ar
   5    2   23 1
   6    3    4 ar
   7    3   24 1
   8    4    5 ar
   9    4    8 1
  10    5    6 ar
  11    5    7 1
  12    6   25 1
  13    7    9 1
  14    8   10 1
  15    8   15 1
  16    9   10 ar
  17    9   14 ar
  18   10   11 ar
  19   11   12 ar
  20   11   26 1
  21   12   13 ar
  22   12   27 1
  23   13   14 ar
  24   13   28 1
  25   14   29 1
  26   15   16 1
  27   15   30 1
  28   15   31 1
  29   16   17 ar
  30   16   21 ar
  31   17   18 ar
  32   17   32 1
  33   18   19 ar
  34   18   33 1
  35   19   20 ar
  36   19   34 1
  37   20   21 ar
  38   20   35 1
  39   21   36 1

#	End of record

