#	Name: ASD01140392
#	Creating user name:	WinNT
#	Creation time:	15. 06. 2019 19:00

#	Modifying user name:	WinNT
#	Modification time:	15. 06. 2019 19:00

#	Program:	/corina/corina34_cracker 3.40 0067  02.08.2006

@<TRIPOS>MOLECULE
ASD01140392
  41   44    0    0    0
SMALL
NO_CHARGES


@<TRIPOS>ATOM
   1 S1            -0.0219     1.7605     0.0117 S.3     
   2 C2             0.0021    -0.0041     0.0020 C.2     
   3 N3             1.2487    -0.3860    -0.0119 N.2     
   4 N4             2.1359     0.5102    -0.0156 N.2     
   5 C5             1.7428     1.7521    -0.0052 C.2     
   6 N6            -1.1062    -0.8354     0.0085 N.pl3   
   7 C7             2.6190     2.9427    -0.0071 C.ar    
   8 C8             4.0065     2.7917    -0.0212 C.ar    
   9 C9             4.8186     3.9069    -0.0234 C.ar    
  10 C10            4.2605     5.1729    -0.0118 C.ar    
  11 C11            2.8859     5.3295     0.0026 C.ar    
  12 C12            2.0624     4.2226    -0.0008 C.ar    
  13 C13           -2.0338    -4.4797     0.4679 C.3     
  14 C14           -2.1633    -2.9555     0.6180 C.3     
  15 C15           -0.9309    -2.2898    -0.0010 C.3     
  16 C16           -0.7527    -2.7720    -1.4435 C.3     
  17 C17           -0.7188    -4.3086    -1.4539 C.3     
  18 C18            0.2570    -4.7676    -0.3459 C.3     
  19 C19           -0.6120    -4.8807     0.9239 C.3     
  20 N20           -2.0494    -4.7821    -0.9881 N.3     
  21 C21           -2.2079    -6.2232    -1.2249 C.3     
  22 H22           -1.9982    -0.4544     0.0194 H       
  23 H23            4.4434     1.8041    -0.0299 H       
  24 H24            5.8924     3.7915    -0.0340 H       
  25 H25            4.9007     6.0427    -0.0136 H       
  26 H26            2.4565     6.3204     0.0120 H       
  27 H27            0.9896     4.3461     0.0060 H       
  28 H28           -2.8089    -5.0137     1.0176 H       
  29 H29           -3.0607    -2.6128     0.1029 H       
  30 H30           -2.2258    -2.6967     1.6750 H       
  31 H31           -0.0468    -2.5523     0.5800 H       
  32 H32           -1.5867    -2.4211    -2.0514 H       
  33 H33            0.1831    -2.3834    -1.8454 H       
  34 H34           -0.4485    -4.7067    -2.4320 H       
  35 H35            0.6884    -5.7364    -0.5979 H       
  36 H36            1.0436    -4.0269    -0.2026 H       
  37 H37           -0.2526    -4.1956     1.6917 H       
  38 H38           -0.6079    -5.9051     1.2964 H       
  39 H39           -3.1470    -6.5621    -0.7875 H       
  40 H40           -2.2161    -6.4164    -2.2976 H       
  41 H41           -1.3783    -6.7603    -0.7653 H       
@<TRIPOS>BOND
   1    1    2 1
   2    1    5 1
   3    2    3 2
   4    2    6 1
   5    3    4 1
   6    4    5 2
   7    5    7 1
   8    6   15 1
   9    6   22 1
  10    7    8 ar
  11    7   12 ar
  12    8    9 ar
  13    8   23 1
  14    9   10 ar
  15    9   24 1
  16   10   11 ar
  17   10   25 1
  18   11   12 ar
  19   11   26 1
  20   12   27 1
  21   13   14 1
  22   13   19 1
  23   13   20 1
  24   13   28 1
  25   14   15 1
  26   14   29 1
  27   14   30 1
  28   15   16 1
  29   15   31 1
  30   16   17 1
  31   16   32 1
  32   16   33 1
  33   17   18 1
  34   17   20 1
  35   17   34 1
  36   18   19 1
  37   18   35 1
  38   18   36 1
  39   19   37 1
  40   19   38 1
  41   20   21 1
  42   21   39 1
  43   21   40 1
  44   21   41 1

#	End of record

