#	Name: ASD01912249
#	Creating user name:	WinNT
#	Creation time:	15. 06. 2019 19:59

#	Modifying user name:	WinNT
#	Modification time:	15. 06. 2019 19:59

#	Program:	/corina/corina34_cracker 3.40 0067  02.08.2006

@<TRIPOS>MOLECULE
ASD01912249
  43   45    0    0    0
SMALL
NO_CHARGES


@<TRIPOS>ATOM
   1 C1            -2.4867     4.2361    -0.0533 C.1     
   2 C2            -1.2463     3.5215    -0.0179 C.ar    
   3 C3            -0.0318     4.2180    -0.0146 C.ar    
   4 C4             1.1599     3.5217     0.0201 C.ar    
   5 C5             1.1597     2.1363     0.0515 C.ar    
   6 C6            -0.0316     1.4361     0.0486 C.ar    
   7 C7            -1.2402     2.1179     0.0194 C.ar    
   8 N8            -3.4708     4.8030    -0.0813 N.1     
   9 N9            -2.4393     1.4141     0.0217 N.3     
  10 C10           -3.1802     1.6411     1.2689 C.3     
  11 C11           -4.5904     1.0545     1.1373 C.3     
  12 C12           -4.4637    -0.3952     0.7184 C.2     
  13 C13           -3.5547    -0.7154    -0.4497 C.3     
  14 C14           -2.2103    -0.0164    -0.2173 C.3     
  15 C15           -5.1293    -1.3569     1.3565 C.2     
  16 C16           -4.9919    -2.7201     0.9403 C.1     
  17 C17           -4.8792    -3.8378     0.5990 C.1     
  18 C18           -4.7418    -5.2011     0.1828 C.ar    
  19 C19           -5.4425    -6.2062     0.8557 C.ar    
  20 C20           -5.2986    -7.5174     0.4411 C.ar    
  21 C21           -4.4598    -7.7857    -0.6327 C.ar    
  22 C22           -3.7960    -6.7435    -1.2538 C.ar    
  23 N23           -3.9527    -5.5014    -0.8447 N.ar    
  24 C24           -2.8852    -7.0325    -2.4191 C.3     
  25 F25           -0.0260     5.5686    -0.0456 F       
  26 Br26           2.8007     1.1977     0.0981 Br      
  27 H27            2.0966     4.0592     0.0223 H       
  28 H28           -0.0223     0.3564     0.0732 H       
  29 H29           -2.6599     1.1553     2.0944 H       
  30 H30           -3.2483     2.7117     1.4616 H       
  31 H31           -5.1052     1.1165     2.0961 H       
  32 H32           -5.1497     1.6077     0.3828 H       
  33 H33           -3.4027    -1.7929    -0.5126 H       
  34 H34           -4.0028    -0.3522    -1.3745 H       
  35 H35           -1.5786    -0.1415    -1.0967 H       
  36 H36           -1.7173    -0.4555     0.6501 H       
  37 H37           -5.7726    -1.1083     2.1876 H       
  38 H38           -6.0866    -5.9623     1.6876 H       
  39 H39           -5.8268    -8.3156     0.9415 H       
  40 H40           -4.3266    -8.7998    -0.9795 H       
  41 H41           -3.4556    -6.9844    -3.3467 H       
  42 H42           -2.0844    -6.2936    -2.4463 H       
  43 H43           -2.4569    -8.0286    -2.3072 H       
@<TRIPOS>BOND
   1    1    2 1
   2    1    8 3
   3    2    3 ar
   4    2    7 ar
   5    3    4 ar
   6    3   25 1
   7    4    5 ar
   8    4   27 1
   9    5    6 ar
  10    5   26 1
  11    6    7 ar
  12    6   28 1
  13    7    9 1
  14    9   10 1
  15    9   14 1
  16   10   11 1
  17   10   29 1
  18   10   30 1
  19   11   12 1
  20   11   31 1
  21   11   32 1
  22   12   13 1
  23   12   15 2
  24   13   14 1
  25   13   33 1
  26   13   34 1
  27   14   35 1
  28   14   36 1
  29   15   16 1
  30   15   37 1
  31   16   17 3
  32   17   18 1
  33   18   19 ar
  34   18   23 ar
  35   19   20 ar
  36   19   38 1
  37   20   21 ar
  38   20   39 1
  39   21   22 ar
  40   21   40 1
  41   22   23 ar
  42   22   24 1
  43   24   41 1
  44   24   42 1
  45   24   43 1

#	End of record

