#	Name: ASD04230139
#	Creating user name:	WinNT
#	Creation time:	15. 06. 2019 20:48

#	Modifying user name:	WinNT
#	Modification time:	15. 06. 2019 20:48

#	Program:	/corina/corina34_cracker 3.40 0067  02.08.2006

@<TRIPOS>MOLECULE
ASD04230139
  42   45    0    0    0
SMALL
NO_CHARGES


@<TRIPOS>ATOM
   1 C1            -0.0201     1.3790     0.0494 C.ar    
   2 C2            -0.0003    -0.0082     0.0381 C.ar    
   3 C3             1.1849    -0.6862     0.0294 C.ar    
   4 C4             2.3957     0.0212     0.0423 C.ar    
   5 C5             2.3815     1.4276     0.0207 C.ar    
   6 C6             1.1610     2.0997     0.0379 C.ar    
   7 C7             3.6343    -0.6710     0.0721 C.2     
   8 C8             4.7887     0.0708     0.2853 C.2     
   9 C9             4.6293     1.5213     0.4958 C.2     
  10 O10            3.5429     2.1221    -0.0388 O.3     
  11 C11            6.1166    -0.5650     0.3010 C.2     
  12 N12            7.2188     0.1818     0.5105 N.am    
  13 O13            6.2189    -1.7642     0.1249 O.2     
  14 C14            8.4677    -0.4350     0.6377 C.ar    
  15 C15            9.6062     0.1933     0.1477 C.ar    
  16 C16           10.8426    -0.4125     0.2711 C.ar    
  17 C17           10.9542    -1.6449     0.8822 C.ar    
  18 C18            9.8167    -2.2837     1.3779 C.ar    
  19 C19            8.5707    -1.6710     1.2579 C.ar    
  20 C20            9.9340    -3.6052     2.0335 C.2     
  21 O21            5.4495     2.1572     1.1309 O.2     
  22 C22           11.0862    -4.3131     2.2279 C.2     
  23 N23            8.9133    -4.3386     2.5605 N.pl3   
  24 N24            9.4604    -5.5187     3.0805 N.2     
  25 C25           10.7539    -5.5002     2.8808 C.2     
  26 O26            1.1309     3.4591     0.0425 O.3     
  27 C27           -0.1564     4.0794     0.0604 C.3     
  28 H28           -0.9655     1.9009     0.0629 H       
  29 H29           -0.9306    -0.5567     0.0365 H       
  30 H30            1.1898    -1.7661     0.0129 H       
  31 H31            3.6777    -1.7412    -0.0664 H       
  32 H32            7.1460     1.1470     0.5731 H       
  33 H33            9.5248     1.1578    -0.3314 H       
  34 H34           11.7240     0.0800    -0.1122 H       
  35 H35           11.9219    -2.1151     0.9764 H       
  36 H36            7.6871    -2.1608     1.6397 H       
  37 H37           12.0781    -4.0080     1.9288 H       
  38 H38            7.9763    -4.0883     2.5735 H       
  39 H39           11.4477    -6.2747     3.1725 H       
  40 H40           -0.7177     3.7769    -0.8236 H       
  41 H41           -0.6957     3.7714     0.9562 H       
  42 H42           -0.0376     5.1629     0.0623 H       
@<TRIPOS>BOND
   1    1    2 ar
   2    1    6 ar
   3    1   28 1
   4    2    3 ar
   5    2   29 1
   6    3    4 ar
   7    3   30 1
   8    4    5 ar
   9    4    7 1
  10    5    6 ar
  11    5   10 1
  12    6   26 1
  13    7    8 2
  14    7   31 1
  15    8    9 1
  16    8   11 1
  17    9   10 1
  18    9   21 2
  19   11   12 am
  20   11   13 2
  21   12   14 1
  22   12   32 1
  23   14   15 ar
  24   14   19 ar
  25   15   16 ar
  26   15   33 1
  27   16   17 ar
  28   16   34 1
  29   17   18 ar
  30   17   35 1
  31   18   19 ar
  32   18   20 1
  33   19   36 1
  34   20   23 1
  35   20   22 2
  36   22   25 1
  37   22   37 1
  38   23   24 1
  39   23   38 1
  40   24   25 2
  41   25   39 1
  42   26   27 1
  43   27   40 1
  44   27   41 1
  45   27   42 1

#	End of record

