#	Name: ASD02039333
#	Creating user name:	WinNT
#	Creation time:	15. 06. 2019 20:18

#	Modifying user name:	WinNT
#	Modification time:	15. 06. 2019 20:18

#	Program:	/corina/corina34_cracker 3.40 0067  02.08.2006

@<TRIPOS>MOLECULE
ASD02039333
  47   49    0    0    0
SMALL
NO_CHARGES


@<TRIPOS>ATOM
   1 C1            -0.0874     1.3448     0.4756 C.ar    
   2 C2             0.1983    -0.0126     0.5148 C.ar    
   3 C3            -0.8401    -0.9223     0.5929 C.ar    
   4 C4            -2.4083     0.7719     0.6065 C.ar    
   5 C5            -1.4122     1.7428     0.5222 C.ar    
   6 C6            -3.8322     1.1819     0.6573 C.ar    
   7 C7             1.0203     2.3630     0.3904 C.3     
   8 N8             1.4061     2.5488    -1.0106 N.am    
   9 C9             0.6531     3.4738    -1.8612 C.3     
  10 C10            2.4538     1.8689    -1.5169 C.2     
  11 C11            3.1417     0.8573    -0.6959 C.2     
  12 C12            4.1353     0.0204    -1.1124 C.2     
  13 N13            2.9063     0.5921     0.6146 N.2     
  14 C14            3.7031    -0.3620     1.0007 C.2     
  15 N15            4.4802    -0.7407    -0.0473 N.pl3   
  16 O16            2.8315     2.0903    -2.6516 O.2     
  17 C17            5.5066    -1.7858    -0.0284 C.3     
  18 C18           -4.1689     2.5324     0.7341 C.ar    
  19 N19           -2.0932    -0.5170     0.6299 N.ar    
  20 C20            1.5550     4.6402    -2.2697 C.3     
  21 C21            0.1721     2.7382    -3.1136 C.3     
  22 C22           -4.8404     0.2170     0.6225 C.ar    
  23 C23           -6.1662     0.6053     0.6702 C.ar    
  24 C24           -6.4933     1.9484     0.7523 C.ar    
  25 C25           -5.4947     2.9094     0.7812 C.ar    
  26 F26           -7.7903     2.3237     0.7987 F       
  27 F27           -4.5212    -1.0933     0.5420 F       
  28 H28            1.2220    -0.3553     0.4843 H       
  29 H29           -0.6210    -1.9794     0.6236 H       
  30 H30           -1.6699     2.7914     0.5032 H       
  31 H31            0.6742     3.3116     0.8009 H       
  32 H32            1.8805     2.0126     0.9608 H       
  33 H33           -0.2071     3.8551    -1.3109 H       
  34 H34            4.5644    -0.0262    -2.1024 H       
  35 H35            3.7423    -0.7826     1.9947 H       
  36 H36            5.0563    -2.7422    -0.2940 H       
  37 H37            6.2884    -1.5402    -0.7471 H       
  38 H38            5.9389    -1.8525     0.9700 H       
  39 H39           -3.3924     3.2827     0.7572 H       
  40 H40            2.3439     4.2763    -2.9279 H       
  41 H41            0.9631     5.3914    -2.7927 H       
  42 H42            2.0006     5.0840    -1.3794 H       
  43 H43           -0.3787     1.8443    -2.8209 H       
  44 H44           -0.4795     3.3933    -3.6920 H       
  45 H45            1.0317     2.4531    -3.7201 H       
  46 H46           -6.9478    -0.1395     0.6431 H       
  47 H47           -5.7554     3.9555     0.8453 H       
@<TRIPOS>BOND
   1    1    2 ar
   2    1    7 1
   3    1    5 ar
   4    2    3 ar
   5    2   28 1
   6    3   19 ar
   7    3   29 1
   8    4    5 ar
   9    4    6 1
  10    4   19 ar
  11    5   30 1
  12    6   18 ar
  13    6   22 ar
  14    7    8 1
  15    7   31 1
  16    7   32 1
  17    8    9 1
  18    8   10 am
  19    9   21 1
  20    9   20 1
  21    9   33 1
  22   10   11 1
  23   10   16 2
  24   11   12 2
  25   11   13 1
  26   12   15 1
  27   12   34 1
  28   13   14 2
  29   14   15 1
  30   14   35 1
  31   15   17 1
  32   17   36 1
  33   17   37 1
  34   17   38 1
  35   18   25 ar
  36   18   39 1
  37   20   40 1
  38   20   41 1
  39   20   42 1
  40   21   43 1
  41   21   44 1
  42   21   45 1
  43   22   23 ar
  44   22   27 1
  45   23   24 ar
  46   23   46 1
  47   24   25 ar
  48   24   26 1
  49   25   47 1

#	End of record

