#	Name: ASD03430712
#	Creating user name:	WinNT
#	Creation time:	15. 06. 2019 20:41

#	Modifying user name:	WinNT
#	Modification time:	15. 06. 2019 20:41

#	Program:	/corina/corina34_cracker 3.40 0067  02.08.2006

@<TRIPOS>MOLECULE
ASD03430712
  48   52    0    0    0
SMALL
NO_CHARGES


@<TRIPOS>ATOM
   1 C1            -0.0169     1.3941     0.0097 C.ar    
   2 C2             0.0021    -0.0041     0.0020 C.ar    
   3 C3             1.1995    -0.6760    -0.0121 C.ar    
   4 C4             2.4102     0.0194    -0.0094 C.ar    
   5 C5             2.3944     1.4118    -0.0069 C.ar    
   6 C6             1.1962     2.0995     0.0019 C.ar    
   7 O7             3.4692    -0.8368     0.0028 O.3     
   8 C8             1.5483    -2.1403    -0.0445 C.3     
   9 C9             3.0336    -2.1396    -0.4305 C.3     
  10 C10            0.4203    -3.8499     1.0164 C.ar    
  11 C11            1.3128    -2.8123     1.2756 C.ar    
  12 C12            0.7133    -2.9015    -1.0335 C.2     
  13 N13            0.0895    -3.8750    -0.3405 N.am    
  14 O14            0.6187    -2.6833    -2.2229 O.2     
  15 C15            1.7823    -2.5945     2.5511 C.ar    
  16 C16            1.3682    -3.4087     3.5908 C.ar    
  17 C17            0.4819    -4.4410     3.3452 C.ar    
  18 C18            0.0081    -4.6633     2.0686 C.ar    
  19 C19           -0.8280    -4.8467    -0.9407 C.3     
  20 O20            1.1924     3.4565     0.0030 O.3     
  21 C21           -2.2333    -4.3044    -0.8968 C.ar    
  22 C22           -2.7141    -3.5473    -1.9491 C.ar    
  23 C23           -4.0020    -3.0490    -1.9113 C.ar    
  24 C24           -4.8131    -3.3087    -0.8162 C.ar    
  25 C25           -4.3283    -4.0686     0.2385 C.ar    
  26 C26           -3.0416    -4.5694     0.1932 C.ar    
  27 C27           -1.2629     2.0997     0.0195 C.1     
  28 N28           -2.2514     2.6595     0.0272 N.1     
  29 O29           -6.0803    -2.8193    -0.7764 O.3     
  30 C30           -6.8583    -3.1264     0.3823 C.3     
  31 H31           -0.9262    -0.5561     0.0075 H       
  32 H32            3.3259     1.9583    -0.0110 H       
  33 H33            3.1534    -2.2490    -1.5084 H       
  34 H34            3.5719    -2.9242     0.1012 H       
  35 H35            2.4748    -1.7877     2.7406 H       
  36 H36            1.7369    -3.2383     4.5915 H       
  37 H37            0.1585    -5.0761     4.1567 H       
  38 H38           -0.6843    -5.4715     1.8847 H       
  39 H39           -0.5401    -5.0265    -1.9765 H       
  40 H40           -0.7820    -5.7823    -0.3832 H       
  41 H41            1.1974     3.8492     0.8867 H       
  42 H42           -2.0821    -3.3451    -2.8013 H       
  43 H43           -4.3769    -2.4574    -2.7334 H       
  44 H44           -4.9578    -4.2722     1.0921 H       
  45 H45           -2.6637    -5.1610     1.0140 H       
  46 H46           -6.9589    -4.2077     0.4762 H       
  47 H47           -6.3629    -2.7292     1.2683 H       
  48 H48           -7.8464    -2.6765     0.2861 H       
@<TRIPOS>BOND
   1    1    2 ar
   2    1    6 ar
   3    1   27 1
   4    2    3 ar
   5    2   31 1
   6    3    4 ar
   7    3    8 1
   8    4    5 ar
   9    4    7 1
  10    5    6 ar
  11    5   32 1
  12    6   20 1
  13    7    9 1
  14    8    9 1
  15    8   11 1
  16    8   12 1
  17    9   33 1
  18    9   34 1
  19   10   11 ar
  20   10   13 1
  21   10   18 ar
  22   11   15 ar
  23   12   13 am
  24   12   14 2
  25   13   19 1
  26   15   16 ar
  27   15   35 1
  28   16   17 ar
  29   16   36 1
  30   17   18 ar
  31   17   37 1
  32   18   38 1
  33   19   21 1
  34   19   39 1
  35   19   40 1
  36   20   41 1
  37   21   22 ar
  38   21   26 ar
  39   22   23 ar
  40   22   42 1
  41   23   24 ar
  42   23   43 1
  43   24   25 ar
  44   24   29 1
  45   25   26 ar
  46   25   44 1
  47   26   45 1
  48   27   28 3
  49   29   30 1
  50   30   46 1
  51   30   47 1
  52   30   48 1

#	End of record

