#	Name: ASD01816455
#	Creating user name:	WinNT
#	Creation time:	15. 06. 2019 19:35

#	Modifying user name:	WinNT
#	Modification time:	15. 06. 2019 19:35

#	Program:	/corina/corina34_cracker 3.40 0067  02.08.2006

@<TRIPOS>MOLECULE
ASD01816455
  60   66    0    0    0
SMALL
NO_CHARGES


@<TRIPOS>ATOM
   1 C1            -0.0167     1.3813     0.0096 C.ar    
   2 C2             0.0021    -0.0041     0.0020 C.ar    
   3 C3             1.1983    -0.6909    -0.0126 C.ar    
   4 C4             2.4015     0.0059    -0.0203 C.ar    
   5 C5             2.3790     1.4106    -0.0130 C.ar    
   6 C6             1.1662     2.0917     0.0022 C.ar    
   7 N7             3.6052    -0.6771    -0.0345 N.pl3   
   8 C8             4.7970    -0.0585    -0.0420 C.2     
   9 C9             4.8999     1.3104    -0.0361 C.2     
  10 C10            3.6669     2.1302    -0.0214 C.2     
  11 C11            5.9971     2.2731    -0.0410 C.2     
  12 N12            5.4245     3.4962    -0.0302 N.am    
  13 N13            4.0322     3.3800    -0.0187 N.2     
  14 C14            6.1221     4.7010    -0.0301 C.ar    
  15 O15            7.1911     2.0232    -0.0523 O.2     
  16 C16            3.5778    -2.1419    -0.0411 C.3     
  17 C17            3.5555    -2.6375    -1.4641 C.ar    
  18 C18            4.7433    -2.8867    -2.1267 C.ar    
  19 C19            4.7261    -3.3405    -3.4311 C.ar    
  20 C20            3.5144    -3.5469    -4.0768 C.ar    
  21 C21            2.3234    -3.2962    -3.4088 C.ar    
  22 C22            2.3471    -2.8474    -2.1027 C.ar    
  23 N23            3.4937    -4.0070    -5.4008 N.pl3   
  24 C24            2.3888    -4.2482    -6.1423 C.2     
  25 C25            2.7955    -4.6776    -7.3594 C.2     
  26 C26            4.1945    -4.6999    -7.3630 C.2     
  27 N27            4.6138    -4.2926    -6.1921 N.2     
  28 C28            7.0596     4.9657    -1.0196 C.ar    
  29 C29            7.7477     6.1625    -1.0122 C.ar    
  30 C30            7.5142     7.1043    -0.0242 C.ar    
  31 C31            6.5881     6.8626     0.9719 C.ar    
  32 C32            5.8779     5.6596     0.9681 C.ar    
  33 C33            6.3689     7.9032     2.0360 C.3     
  34 C34            4.9978     7.7467     2.6880 C.3     
  35 C35            4.8439     6.3130     3.2125 C.3     
  36 C36            4.8768     5.3885     2.0119 C.2     
  37 O37            4.1066     4.4562     1.9164 O.2     
  38 H38           -0.9602     1.9069     0.0169 H       
  39 H39           -0.9289    -0.5515     0.0079 H       
  40 H40            1.2003    -1.7709    -0.0177 H       
  41 H41            1.1506     3.1715     0.0081 H       
  42 H42            5.6982    -0.6535    -0.0527 H       
  43 H43            4.4655    -2.5241     0.4629 H       
  44 H44            2.6859    -2.4910     0.4793 H       
  45 H45            5.6855    -2.7260    -1.6238 H       
  46 H46            5.6541    -3.5344    -3.9483 H       
  47 H47            1.3794    -3.4554    -3.9086 H       
  48 H48            1.4210    -2.6522    -1.5825 H       
  49 H49            1.3656    -4.1216    -5.8206 H       
  50 H50            2.1535    -4.9543    -8.1826 H       
  51 H51            4.8207    -4.9977    -8.1911 H       
  52 H52            7.2503     4.2367    -1.7933 H       
  53 H53            8.4751     6.3661    -1.7840 H       
  54 H54            8.0612     8.0355    -0.0322 H       
  55 H55            7.1408     7.8020     2.7989 H       
  56 H56            6.4398     8.8938     1.5868 H       
  57 H57            4.9070     8.4488     3.5168 H       
  58 H58            4.2198     7.9500     1.9521 H       
  59 H59            5.6645     6.0763     3.8898 H       
  60 H60            3.8916     6.2089     3.7323 H       
@<TRIPOS>BOND
   1    1    2 ar
   2    1    6 ar
   3    1   38 1
   4    2    3 ar
   5    2   39 1
   6    3    4 ar
   7    3   40 1
   8    4    5 ar
   9    4    7 1
  10    5    6 ar
  11    5   10 1
  12    6   41 1
  13    7    8 1
  14    7   16 1
  15    8    9 2
  16    8   42 1
  17    9   10 1
  18    9   11 1
  19   10   13 2
  20   11   12 am
  21   11   15 2
  22   12   13 1
  23   12   14 1
  24   14   28 ar
  25   14   32 ar
  26   16   17 1
  27   16   43 1
  28   16   44 1
  29   17   18 ar
  30   17   22 ar
  31   18   19 ar
  32   18   45 1
  33   19   20 ar
  34   19   46 1
  35   20   21 ar
  36   20   23 1
  37   21   22 ar
  38   21   47 1
  39   22   48 1
  40   23   24 1
  41   23   27 1
  42   24   25 2
  43   24   49 1
  44   25   26 1
  45   25   50 1
  46   26   27 2
  47   26   51 1
  48   28   29 ar
  49   28   52 1
  50   29   30 ar
  51   29   53 1
  52   30   31 ar
  53   30   54 1
  54   31   32 ar
  55   31   33 1
  56   32   36 1
  57   33   34 1
  58   33   55 1
  59   33   56 1
  60   34   35 1
  61   34   57 1
  62   34   58 1
  63   35   36 1
  64   35   59 1
  65   35   60 1
  66   36   37 2

#	End of record

