#	Name: ASD04882345
#	Creating user name:	WinNT
#	Creation time:	15. 06. 2019 20:54

#	Modifying user name:	WinNT
#	Modification time:	15. 06. 2019 20:54

#	Program:	/corina/corina34_cracker 3.40 0067  02.08.2006

@<TRIPOS>MOLECULE
ASD04882345
  74   79    0    0    0
SMALL
NO_CHARGES


@<TRIPOS>ATOM
   1 N1            -0.0382     1.4843     0.0770 N.am    
   2 C2             0.2270     0.1162    -0.0666 C.ar    
   3 C3            -0.8228    -0.8062    -0.0414 C.ar    
   4 C4            -0.5611    -2.1641    -0.1838 C.ar    
   5 C5             0.7329    -2.6054    -0.3497 C.ar    
   6 C6             1.7874    -1.6885    -0.3754 C.ar    
   7 C7             1.5264    -0.3221    -0.2391 C.ar    
   8 N8            -2.1326    -0.3644     0.1270 N.3     
   9 C9            -2.9681    -0.7439    -1.0208 C.3     
  10 C10           -2.7032    -0.8744     1.3816 C.3     
  11 C11           -4.1110    -0.3036     1.5679 C.3     
  12 N12           -4.9465    -0.6831     0.4201 N.3     
  13 C13           -4.3759    -0.1731    -0.8345 C.3     
  14 C14            3.1735    -2.1616    -0.5526 C.2     
  15 O15            3.4157    -3.3531    -0.5381 O.2     
  16 C16            0.8035     2.3932    -0.4538 C.2     
  17 C17            0.4831     3.8220    -0.3768 C.2     
  18 O18            1.8296     2.0281    -0.9972 O.2     
  19 N19            4.1713    -1.2732    -0.7305 N.am    
  20 C20            1.2440     4.8428    -0.8707 C.2     
  21 C21            0.5613     6.0336    -0.5771 C.2     
  22 C22           -0.5719     5.6919     0.0749 C.2     
  23 O23           -0.6179     4.3582     0.1892 O.3     
  24 C24           -6.2603    -0.2400     0.5890 C.ar    
  25 C25           -6.5245     1.1160     0.7319 C.ar    
  26 C26           -7.3063    -1.1542     0.6088 C.ar    
  27 C27           -8.6039    -0.7127     0.7760 C.ar    
  28 C28           -8.8630     0.6379     0.9233 C.ar    
  29 C29           -7.8249     1.5508     0.8989 C.ar    
  30 C30           -7.0250    -2.6259     0.4473 C.3     
  31 C31            5.5720    -1.5827    -1.0334 C.3     
  32 C32            4.0618     0.1873    -0.6644 C.3     
  33 C33            5.4308     0.7628    -0.9287 C.ar    
  34 C34            6.3167    -0.2760    -1.1452 C.ar    
  35 C35            5.8711     2.0762    -0.9804 C.ar    
  36 C36            7.1946     2.3562    -1.2445 C.ar    
  37 C37            8.0954     1.3112    -1.4609 C.ar    
  38 C38            7.6460    -0.0088    -1.4112 C.ar    
  39 C39            9.5156     1.6019    -1.7451 C.2     
  40 O40           10.2964     0.6905    -1.9328 O.2     
  41 O41            9.9448     2.8778    -1.7962 O.3     
  42 C42           11.3531     3.0887    -2.0803 C.3     
  43 H43           -0.8297     1.7773     0.5551 H       
  44 H44           -1.3743    -2.8745    -0.1639 H       
  45 H45            0.9329    -3.6610    -0.4597 H       
  46 H46            2.3392     0.3887    -0.2585 H       
  47 H47           -2.5318    -0.3442    -1.9361 H       
  48 H48           -3.0223    -1.8305    -1.0877 H       
  49 H49           -2.7543    -1.9625     1.3420 H       
  50 H50           -2.0737    -0.5698     2.2177 H       
  51 H51           -4.5473    -0.7033     2.4833 H       
  52 H52           -4.0568     0.7830     1.6348 H       
  53 H53           -4.3248     0.9150    -0.7949 H       
  54 H54           -5.0054    -0.4777    -1.6706 H       
  55 H55            2.1883     4.7516    -1.3868 H       
  56 H56            0.8815     7.0346    -0.8255 H       
  57 H57           -1.3194     6.3806     0.4401 H       
  58 H58           -5.7141     1.8297     0.7129 H       
  59 H59           -9.4174    -1.4229     0.7915 H       
  60 H60           -9.8789     0.9805     1.0533 H       
  61 H61           -8.0306     2.6047     1.0143 H       
  62 H62           -6.8570    -3.0733     1.4270 H       
  63 H63           -7.8773    -3.1083    -0.0311 H       
  64 H64           -6.1372    -2.7605    -0.1706 H       
  65 H65            5.9994    -2.1839    -0.2309 H       
  66 H66            5.6348    -2.1255    -1.9765 H       
  67 H67            3.3606     0.5398    -1.4208 H       
  68 H68            3.7198     0.4877     0.3260 H       
  69 H69            5.1739     2.8839    -0.8133 H       
  70 H70            7.5340     3.3807    -1.2843 H       
  71 H71            8.3376    -0.8214    -1.5772 H       
  72 H72           11.9552     2.6077    -1.3095 H       
  73 H73           11.5960     2.6589    -3.0521 H       
  74 H74           11.5651     4.1578    -2.0926 H       
@<TRIPOS>BOND
   1    1    2 1
   2    1   16 am
   3    1   43 1
   4    2    3 ar
   5    2    7 ar
   6    3    4 ar
   7    3    8 1
   8    4    5 ar
   9    4   44 1
  10    5    6 ar
  11    5   45 1
  12    6    7 ar
  13    6   14 1
  14    7   46 1
  15    8    9 1
  16    8   10 1
  17    9   13 1
  18    9   47 1
  19    9   48 1
  20   10   11 1
  21   10   49 1
  22   10   50 1
  23   11   12 1
  24   11   51 1
  25   11   52 1
  26   12   13 1
  27   12   24 1
  28   13   53 1
  29   13   54 1
  30   14   15 2
  31   14   19 am
  32   16   18 2
  33   16   17 1
  34   17   20 2
  35   17   23 1
  36   19   32 1
  37   19   31 1
  38   20   21 1
  39   20   55 1
  40   21   22 2
  41   21   56 1
  42   22   23 1
  43   22   57 1
  44   24   25 ar
  45   24   26 ar
  46   25   29 ar
  47   25   58 1
  48   26   27 ar
  49   26   30 1
  50   27   28 ar
  51   27   59 1
  52   28   29 ar
  53   28   60 1
  54   29   61 1
  55   30   62 1
  56   30   63 1
  57   30   64 1
  58   31   34 1
  59   31   65 1
  60   31   66 1
  61   32   33 1
  62   32   67 1
  63   32   68 1
  64   33   34 ar
  65   33   35 ar
  66   34   38 ar
  67   35   36 ar
  68   35   69 1
  69   36   37 ar
  70   36   70 1
  71   37   38 ar
  72   37   39 1
  73   38   71 1
  74   39   40 2
  75   39   41 1
  76   41   42 1
  77   42   72 1
  78   42   73 1
  79   42   74 1

#	End of record

