#	Name: ASD03082177
#	Creating user name:	WinNT
#	Creation time:	15. 06. 2019 20:27

#	Modifying user name:	WinNT
#	Modification time:	15. 06. 2019 20:27

#	Program:	/corina/corina34_cracker 3.40 0067  02.08.2006

@<TRIPOS>MOLECULE
ASD03082177
  48   51    0    0    0
SMALL
NO_CHARGES


@<TRIPOS>ATOM
   1 C1            -0.0074     1.3739    -0.1444 C.ar    
   2 C2            -1.2005     1.8384     0.3945 C.ar    
   3 C3            -2.3675     1.1253     0.2014 C.ar    
   4 C4            -2.3490    -0.0499    -0.5268 C.ar    
   5 C5            -1.1627    -0.5155    -1.0644 C.ar    
   6 C6             0.0064     0.1959    -0.8809 C.ar    
   7 C7            -1.1474    -1.7972    -1.8570 C.3     
   8 N8             1.1751     2.0928     0.0490 N.pl3   
   9 C9             4.4159    -1.5604     0.2142 C.ar    
  10 C10            5.7100    -1.7619     0.6961 C.ar    
  11 C11            3.6680    -2.6467    -0.2406 C.ar    
  12 C12            4.2106    -3.9197    -0.2126 C.ar    
  13 C13            5.5025    -4.1138     0.2667 C.ar    
  14 C14            6.2459    -3.0317     0.7203 C.ar    
  15 N15            4.5290     0.9605     0.2411 N.pl3   
  16 C16            3.8366    -0.1999     0.1915 C.2     
  17 N17            3.5772     1.9919     0.1941 N.2     
  18 C18            2.3974     1.4212     0.1160 C.2     
  19 N19            2.5538     0.0960     0.1194 N.2     
  20 C20            5.9833     1.1117     0.3322 C.3     
  21 F21           -2.4407    -2.3279    -1.9105 F       
  22 F22           -0.6960    -1.5371    -3.1554 F       
  23 F23           -0.2912    -2.7163    -1.2410 F       
  24 C24            6.3894     1.1996     1.7808 C.2     
  25 O25            7.6835     1.3420     2.1075 O.3     
  26 O26            5.5502     1.1419     2.6481 O.2     
  27 C27            8.0015     1.4199     3.5221 C.3     
  28 O28            3.4659    -4.9708    -0.6530 O.3     
  29 C29            4.1732    -6.1773    -0.9592 C.3     
  30 C30            5.1524    -6.4643     0.1870 C.3     
  31 O31            6.0542    -5.3576     0.2941 O.3     
  32 H32           -1.2155     2.7559     0.9640 H       
  33 H33           -3.2954     1.4858     0.6201 H       
  34 H34           -3.2629    -0.6058    -0.6760 H       
  35 H35            0.9324    -0.1683    -1.3009 H       
  36 H36            1.1468     3.0584     0.1367 H       
  37 H37            6.2916    -0.9233     1.0496 H       
  38 H38            2.6662    -2.4945    -0.6140 H       
  39 H39            7.2477    -3.1858     1.0933 H       
  40 H40            6.4677     0.2512    -0.1294 H       
  41 H41            6.2872     2.0211    -0.1862 H       
  42 H42            7.4923     2.2771     3.9624 H       
  43 H43            7.6727     0.5073     4.0192 H       
  44 H44            9.0784     1.5337     3.6467 H       
  45 H45            3.4678    -7.0026    -1.0554 H       
  46 H46            4.7245    -6.0537    -1.8914 H       
  47 H47            4.6017    -6.5812     1.1204 H       
  48 H48            5.7119    -7.3750    -0.0268 H       
@<TRIPOS>BOND
   1    1    2 ar
   2    1    8 1
   3    1    6 ar
   4    2    3 ar
   5    2   32 1
   6    3    4 ar
   7    3   33 1
   8    4    5 ar
   9    4   34 1
  10    5    6 ar
  11    5    7 1
  12    6   35 1
  13    7   21 1
  14    7   22 1
  15    7   23 1
  16    8   18 1
  17    8   36 1
  18    9   10 ar
  19    9   11 ar
  20    9   16 1
  21   10   14 ar
  22   10   37 1
  23   11   12 ar
  24   11   38 1
  25   12   13 ar
  26   12   28 1
  27   13   14 ar
  28   13   31 1
  29   14   39 1
  30   15   17 1
  31   15   20 1
  32   15   16 1
  33   16   19 2
  34   17   18 2
  35   18   19 1
  36   20   24 1
  37   20   40 1
  38   20   41 1
  39   24   25 1
  40   24   26 2
  41   25   27 1
  42   27   42 1
  43   27   43 1
  44   27   44 1
  45   28   29 1
  46   29   30 1
  47   29   45 1
  48   29   46 1
  49   30   31 1
  50   30   47 1
  51   30   48 1

#	End of record

