#	Name: ASD03081123
#	Creating user name:	WinNT
#	Creation time:	15. 06. 2019 20:27

#	Modifying user name:	WinNT
#	Modification time:	15. 06. 2019 20:27

#	Program:	/corina/corina34_cracker 3.40 0067  02.08.2006

@<TRIPOS>MOLECULE
ASD03081123
  25   27    0    0    0
SMALL
NO_CHARGES


@<TRIPOS>ATOM
   1 O1            -0.0144     1.2085     0.0087 O.3     
   2 N2             0.0021    -0.0041     0.0020 N.2     
   3 C3             1.2345    -0.4422    -0.0121 C.2     
   4 N4             2.0455     0.6360    -0.0141 N.2     
   5 C5             1.2412     1.6827    -0.0008 C.2     
   6 C6             1.6457     3.1039     0.0023 C.ar    
   7 C7             0.6758     4.1078     0.0167 C.ar    
   8 C8             1.0585     5.4348     0.0194 C.ar    
   9 C9             2.4047     5.7708     0.0074 C.ar    
  10 C10            3.3723     4.7764    -0.0069 C.ar    
  11 C11            2.9989     3.4467    -0.0035 C.ar    
  12 F12            4.6815     5.1093    -0.0185 F       
  13 F13            2.7745     7.0703     0.0093 F       
  14 F14            0.1207     6.4072     0.0333 F       
  15 C15            3.0148    -2.2114    -0.0374 C.ar    
  16 C16            1.6621    -1.8643    -0.0231 C.ar    
  17 C17            0.7234    -2.9020    -0.0189 C.ar    
  18 C18            1.1975    -4.2028    -0.0293 C.ar    
  19 N19            2.4972    -4.4303    -0.0426 N.ar    
  20 N20            3.3623    -3.4830    -0.0465 N.ar    
  21 H21           -0.3722     3.8472     0.0253 H       
  22 H22            3.7527     2.6733    -0.0097 H       
  23 H23            3.7724    -1.4417    -0.0456 H       
  24 H24           -0.3365    -2.6950    -0.0076 H       
  25 H25            0.5040    -5.0307    -0.0262 H       
@<TRIPOS>BOND
   1    1    2 1
   2    1    5 1
   3    2    3 2
   4    3    4 1
   5    3   16 1
   6    4    5 2
   7    5    6 1
   8    6    7 ar
   9    6   11 ar
  10    7    8 ar
  11    7   21 1
  12    8    9 ar
  13    8   14 1
  14    9   10 ar
  15    9   13 1
  16   10   11 ar
  17   10   12 1
  18   11   22 1
  19   15   16 ar
  20   15   20 ar
  21   15   23 1
  22   16   17 ar
  23   17   18 ar
  24   17   24 1
  25   18   19 ar
  26   18   25 1
  27   19   20 ar

#	End of record

