#	Name: ASD01231336
#	Creating user name:	WinNT
#	Creation time:	15. 06. 2019 19:15

#	Modifying user name:	WinNT
#	Modification time:	15. 06. 2019 19:15

#	Program:	/corina/corina34_cracker 3.40 0067  02.08.2006

@<TRIPOS>MOLECULE
ASD01231336
  50   52    0    0    0
SMALL
NO_CHARGES


@<TRIPOS>ATOM
   1 C1            -0.0187     1.5258     0.0104 C.3     
   2 C2             0.0021    -0.0041     0.0020 C.3     
   3 C3            -1.4333    -0.5336     0.0129 C.3     
   4 S4             0.8511    -0.5891    -1.4904 S.o2    
   5 O5             1.0544    -1.9942    -1.4301 O.2     
   6 O6             0.3011     0.0225    -2.6492 O.2     
   7 N7             2.3749     0.0492    -1.3760 N.am    
   8 C8             4.2207    -1.4887    -0.7731 C.3     
   9 C9             3.2670    -0.3739    -0.2937 C.3     
  10 C10            4.2450     0.7583     0.0855 C.3     
  11 C11            5.5400     0.0603     0.4420 C.ar    
  12 C12            6.6432     0.5187     1.1426 C.ar    
  13 C13            7.7285    -0.3099     1.3495 C.ar    
  14 C14            7.7146    -1.6013     0.8560 C.ar    
  15 C15            6.6154    -2.0602     0.1572 C.ar    
  16 C16            5.5260    -1.2308    -0.0513 C.ar    
  17 C17            8.9267     0.1930     2.1128 C.3     
  18 C18            8.7452    -0.0972     3.5805 C.ar    
  19 C19            9.1985    -1.2909     4.1101 C.ar    
  20 C20            9.0319    -1.5571     5.4573 C.ar    
  21 C21            8.4115    -0.6282     6.2739 C.ar    
  22 C22            7.9588     0.5648     5.7433 C.ar    
  23 C23            8.1307     0.8327     4.3978 C.ar    
  24 C24            7.2831     1.5765     6.6326 C.3     
  25 O25            8.2630     2.4649     7.1736 O.3     
  26 Cl26           9.6004    -3.0562     6.1230 Cl      
  27 H27            1.0039     1.9031     0.0027 H       
  28 H28           -0.5459     1.8868    -0.8726 H       
  29 H29           -0.5289     1.8773     0.9072 H       
  30 H30            0.5293    -0.3651     0.8851 H       
  31 H31           -1.9605    -0.1726    -0.8702 H       
  32 H32           -1.4185    -1.6235     0.0069 H       
  33 H33           -1.9435    -0.1821     0.9097 H       
  34 H34            2.6768     0.7033    -2.0256 H       
  35 H35            3.8253    -2.4675    -0.5013 H       
  36 H36            4.3657    -1.4246    -1.8515 H       
  37 H37            2.6958    -0.6999     0.5755 H       
  38 H38            4.3965     1.4269    -0.7620 H       
  39 H39            3.8661     1.3138     0.9434 H       
  40 H40            6.6550     1.5275     1.5280 H       
  41 H41            8.5626    -2.2505     1.0166 H       
  42 H42            6.6052    -3.0691    -0.2280 H       
  43 H43            9.8244    -0.3087     1.7515 H       
  44 H44            9.0267     1.2682     1.9647 H       
  45 H45            9.6824    -2.0157     3.4721 H       
  46 H46            8.2809    -0.8356     7.3257 H       
  47 H47            7.7809     1.7672     3.9845 H       
  48 H48            6.5587     2.1458     6.0502 H       
  49 H49            6.7714     1.0614     7.4456 H       
  50 H50            7.8984     3.1443     7.7572 H       
@<TRIPOS>BOND
   1    1    2 1
   2    1   27 1
   3    1   28 1
   4    1   29 1
   5    2    3 1
   6    2    4 1
   7    2   30 1
   8    3   31 1
   9    3   32 1
  10    3   33 1
  11    4    5 2
  12    4    6 2
  13    4    7 am
  14    7    9 1
  15    7   34 1
  16    8    9 1
  17    8   16 1
  18    8   35 1
  19    8   36 1
  20    9   10 1
  21    9   37 1
  22   10   11 1
  23   10   38 1
  24   10   39 1
  25   11   12 ar
  26   11   16 ar
  27   12   13 ar
  28   12   40 1
  29   13   14 ar
  30   13   17 1
  31   14   15 ar
  32   14   41 1
  33   15   16 ar
  34   15   42 1
  35   17   18 1
  36   17   43 1
  37   17   44 1
  38   18   19 ar
  39   18   23 ar
  40   19   20 ar
  41   19   45 1
  42   20   21 ar
  43   20   26 1
  44   21   22 ar
  45   21   46 1
  46   22   23 ar
  47   22   24 1
  48   23   47 1
  49   24   25 1
  50   24   48 1
  51   24   49 1
  52   25   50 1

#	End of record

