#	Name: ASD01411237
#	Creating user name:	WinNT
#	Creation time:	15. 06. 2019 19:19

#	Modifying user name:	WinNT
#	Modification time:	15. 06. 2019 19:19

#	Program:	/corina/corina34_cracker 3.40 0067  02.08.2006

@<TRIPOS>MOLECULE
ASD01411237
  68   70    0    0    0
SMALL
NO_CHARGES


@<TRIPOS>ATOM
   1 C1            -0.5896     2.3794    -0.5517 C.ar    
   2 C2            -0.4675     1.0449    -0.9207 C.ar    
   3 C3            -1.5308     0.1786    -0.7671 C.ar    
   4 C4            -2.7317     0.6353    -0.2420 C.ar    
   5 C5            -2.8615     1.9815     0.1326 C.ar    
   6 C6            -1.7776     2.8491    -0.0216 C.ar    
   7 O7             0.4639     3.2244    -0.7072 O.3     
   8 C8             0.8223     3.5686    -1.9669 C.2     
   9 N9            -3.8054    -0.2402    -0.0875 N.am    
  10 C10           -4.0264    -0.8321     1.1030 C.2     
  11 C11           -3.1866    -0.4590     2.2974 C.3     
  12 O12           -4.9011    -1.6649     1.2130 O.2     
  13 C13           -3.9593    -0.7691     3.5810 C.3     
  14 C14           -1.8859    -1.2645     2.2779 C.3     
  15 C15           -1.0333    -0.8858     3.4905 C.3     
  16 C16           -1.8060    -1.1959     4.7741 C.3     
  17 C17           -3.1067    -0.3904     4.7936 C.3     
  18 C18           -0.9534    -0.8172     5.9868 C.3     
  19 C19            1.9121     4.3189    -2.2821 C.2     
  20 C20           -4.6935    -0.5169    -1.2193 C.3     
  21 C21           -4.5896     0.6192    -2.2388 C.3     
  22 C22           -4.2824    -1.8342    -1.8800 C.3     
  23 O23           -4.4677    -2.9086    -0.9562 O.3     
  24 C24           -4.1112    -4.1908    -1.4768 C.3     
  25 O25           -5.0984     1.8240    -1.6629 O.3     
  26 C26           -5.0470     2.9531    -2.5373 C.3     
  27 S27           -0.0278     3.1139    -3.3745 S.3     
  28 C28            1.1158     3.9660    -4.4022 C.2     
  29 C29            2.0849     4.5464    -3.6197 C.2     
  30 C30            1.0517     4.0384    -5.8050 C.2     
  31 O31            1.8977     4.6564    -6.4209 O.2     
  32 C32           -0.0662     3.3497    -6.5447 C.3     
  33 C33           -4.1329     2.4759     0.6908 C.2     
  34 O34           -5.0993     1.7413     0.7445 O.2     
  35 O35           -4.2235     3.7426     1.1415 O.3     
  36 H36            0.4644     0.6841    -1.3302 H       
  37 H37           -1.4284    -0.8569    -1.0565 H       
  38 H38           -1.8698     3.8864     0.2648 H       
  39 H39           -2.9553     0.6055     2.2607 H       
  40 H40           -4.8859    -0.1953     3.5949 H       
  41 H41           -4.1906    -1.8337     3.6177 H       
  42 H42           -2.1172    -2.3290     2.3145 H       
  43 H43           -1.3354    -1.0435     1.3634 H       
  44 H44           -0.1067    -1.4596     3.4766 H       
  45 H45           -0.8020     0.1788     3.4539 H       
  46 H46           -2.0373    -2.2604     4.8108 H       
  47 H47           -2.8754     0.6741     4.7570 H       
  48 H48           -3.6572    -0.6114     5.7081 H       
  49 H49           -0.7221     0.2474     5.9501 H       
  50 H50           -1.5039    -1.0381     6.9013 H       
  51 H51           -0.0267    -1.3910     5.9729 H       
  52 H52            2.5884     4.7053    -1.5341 H       
  53 H53           -5.7212    -0.5937    -0.8643 H       
  54 H54           -3.5458     0.7625    -2.5180 H       
  55 H55           -5.1714     0.3663    -3.1252 H       
  56 H56           -4.8971    -2.0048    -2.7638 H       
  57 H57           -3.2334    -1.7826    -2.1715 H       
  58 H58           -4.2806    -4.9520    -0.7153 H       
  59 H59           -4.7224    -4.4102    -2.3522 H       
  60 H60           -3.0586    -4.1880    -1.7600 H       
  61 H61           -5.4509     3.8271    -2.0263 H       
  62 H62           -4.0126     3.1448    -2.8227 H       
  63 H63           -5.6382     2.7486    -3.4299 H       
  64 H64            2.9018     5.1273    -4.0215 H       
  65 H65           -0.7217     2.8515    -5.8304 H       
  66 H66           -0.6372     4.0873    -7.1086 H       
  67 H67            0.3518     2.6123    -7.2300 H       
  68 H68           -5.0777     4.0214     1.4987 H       
@<TRIPOS>BOND
   1    1    2 ar
   2    1    7 1
   3    1    6 ar
   4    2    3 ar
   5    2   36 1
   6    3    4 ar
   7    3   37 1
   8    4    5 ar
   9    4    9 1
  10    5    6 ar
  11    5   33 1
  12    6   38 1
  13    7    8 1
  14    8   27 1
  15    8   19 2
  16    9   10 am
  17    9   20 1
  18   10   11 1
  19   10   12 2
  20   11   13 1
  21   11   14 1
  22   11   39 1
  23   13   17 1
  24   13   40 1
  25   13   41 1
  26   14   15 1
  27   14   42 1
  28   14   43 1
  29   15   16 1
  30   15   44 1
  31   15   45 1
  32   16   17 1
  33   16   18 1
  34   16   46 1
  35   17   47 1
  36   17   48 1
  37   18   49 1
  38   18   50 1
  39   18   51 1
  40   19   29 1
  41   19   52 1
  42   20   21 1
  43   20   22 1
  44   20   53 1
  45   21   25 1
  46   21   54 1
  47   21   55 1
  48   22   23 1
  49   22   56 1
  50   22   57 1
  51   23   24 1
  52   24   58 1
  53   24   59 1
  54   24   60 1
  55   25   26 1
  56   26   61 1
  57   26   62 1
  58   26   63 1
  59   27   28 1
  60   28   29 2
  61   28   30 1
  62   29   64 1
  63   30   31 2
  64   30   32 1
  65   32   65 1
  66   32   66 1
  67   32   67 1
  68   33   34 2
  69   33   35 1
  70   35   68 1

#	End of record

