#	Name: ASD09890003
#	Creating user name:	WinNT
#	Creation time:	15. 06. 2019 21:24

#	Modifying user name:	WinNT
#	Modification time:	15. 06. 2019 21:24

#	Program:	/corina/corina34_cracker 3.40 0067  02.08.2006

@<TRIPOS>MOLECULE
ASD09890003
  35   37    0    0    0
SMALL
NO_CHARGES


@<TRIPOS>ATOM
   1 C1            -0.0167     1.3771     0.0096 C.ar    
   2 C2             0.0021    -0.0041     0.0020 C.ar    
   3 C3             1.2080    -0.6804    -0.0127 C.ar    
   4 C4             2.3983     0.0232    -0.0203 C.ar    
   5 C5             2.3858     1.4044    -0.0132 C.ar    
   6 C6             1.1767     2.0861     0.0020 C.ar    
   7 N7             1.1608     3.4886     0.0092 N.pl3   
   8 C8             0.6826     4.3104    -0.9671 C.2     
   9 C9             1.6150     4.3109     0.9966 C.2     
  10 N10            1.4112     5.5381     0.6014 N.2     
  11 N11            0.8599     5.5378    -0.5598 N.2     
  12 C12            0.0645     3.8821    -2.2731 C.3     
  13 O13           -1.3463     3.7295    -2.1050 O.3     
  14 C14           -2.0595     3.3443    -3.1958 C.ar    
  15 C15           -3.4336     3.1769    -3.1039 C.ar    
  16 C16           -4.1564     2.7852    -4.2141 C.ar    
  17 C17           -3.5114     2.5601    -5.4162 C.ar    
  18 C18           -2.1419     2.7258    -5.5103 C.ar    
  19 C19           -1.4155     3.1233    -4.4045 C.ar    
  20 C20            2.2357     3.8831     2.3016 C.3     
  21 H21           -0.9589     1.9048     0.0170 H       
  22 H22           -0.9261    -0.5562     0.0079 H       
  23 H23            1.2203    -1.7603    -0.0179 H       
  24 H24            3.3388    -0.5077    -0.0314 H       
  25 H25            3.3158     1.9534    -0.0187 H       
  26 H26            0.2602     4.6386    -3.0330 H       
  27 H27            0.4980     2.9322    -2.5859 H       
  28 H28           -3.9379     3.3523    -2.1651 H       
  29 H29           -5.2261     2.6544    -4.1430 H       
  30 H30           -4.0781     2.2539    -6.2831 H       
  31 H31           -1.6403     2.5486    -6.4502 H       
  32 H32           -0.3458     3.2526    -4.4785 H       
  33 H33            3.3149     3.7926     2.1781 H       
  34 H34            2.0188     4.6270     3.0682 H       
  35 H35            1.8223     2.9204     2.6022 H       
@<TRIPOS>BOND
   1    1    2 ar
   2    1    6 ar
   3    1   21 1
   4    2    3 ar
   5    2   22 1
   6    3    4 ar
   7    3   23 1
   8    4    5 ar
   9    4   24 1
  10    5    6 ar
  11    5   25 1
  12    6    7 1
  13    7    8 1
  14    7    9 1
  15    8   12 1
  16    8   11 2
  17    9   10 2
  18    9   20 1
  19   10   11 1
  20   12   13 1
  21   12   26 1
  22   12   27 1
  23   13   14 1
  24   14   15 ar
  25   14   19 ar
  26   15   16 ar
  27   15   28 1
  28   16   17 ar
  29   16   29 1
  30   17   18 ar
  31   17   30 1
  32   18   19 ar
  33   18   31 1
  34   19   32 1
  35   20   33 1
  36   20   34 1
  37   20   35 1

#	End of record

