#	Name: ASD01820216
#	Creating user name:	WinNT
#	Creation time:	15. 06. 2019 19:36

#	Modifying user name:	WinNT
#	Modification time:	15. 06. 2019 19:36

#	Program:	/corina/corina34_cracker 3.40 0067  02.08.2006

@<TRIPOS>MOLECULE
ASD01820216
 110  115    0    0    0
SMALL
NO_CHARGES


@<TRIPOS>ATOM
   1 C1             4.9704     2.0221     3.2206 C.ar    
   2 C2             4.1219     1.6261     2.0785 C.2     
   3 N3             4.5311     1.9995     0.8426 N.am    
   4 C4             5.7983     2.7129     0.6848 C.3     
   5 N5             6.0190     3.6516     1.7865 N.3     
   6 C6             5.9143     3.0449     3.0276 C.ar    
   7 C7             7.3101     4.3375     1.6432 C.3     
   8 C8             7.2767     5.2337     0.4035 C.3     
   9 C9             8.5712     6.0455     0.3260 C.3     
  10 N10            8.5391     6.9059    -0.8642 N.4     
  11 C11            6.7264     3.4316     4.0846 C.ar    
  12 C12            6.5989     2.8121     5.3119 C.ar    
  13 C13            5.6664     1.8046     5.5018 C.ar    
  14 C14            4.8536     1.4028     4.4617 C.ar    
  15 O15            3.0980     0.9906     2.2411 O.2     
  16 C16            6.9266     1.7144     0.6534 C.ar    
  17 C17            7.8557     1.7532    -0.3694 C.ar    
  18 C18            8.8906     0.8372    -0.3983 C.ar    
  19 C19            8.9967    -0.1173     0.5960 C.ar    
  20 C20            8.0681    -0.1555     1.6194 C.ar    
  21 C21            7.0357     0.7632     1.6505 C.ar    
  22 C22            8.4107     6.0729    -2.0673 C.3     
  23 C23            7.3923     7.8199    -0.7769 C.3     
  24 C24            9.7820     7.6854    -0.9386 C.3     
  25 C25            9.7485     8.5816    -2.1783 C.3     
  26 C26           11.0430     9.3934    -2.2558 C.3     
  27 C27           11.0096    10.2896    -3.4954 C.3     
  28 C28           12.3041    11.1014    -3.5729 C.3     
  29 C29           12.2706    11.9976    -4.8125 C.3     
  30 N30           13.5136    12.7770    -4.8870 N.4     
  31 C31           13.6419    13.6101    -3.6838 C.3     
  32 C32           14.6603    11.8630    -4.9743 C.3     
  33 C33           13.4814    13.6375    -6.0772 C.3     
  34 C34           14.7760    14.4493    -6.1547 C.3     
  35 C35           14.7425    15.3454    -7.3943 C.3     
  36 N36           16.0338    16.0309    -7.5380 N.3     
  37 C37           16.3053    16.8863    -6.3812 C.3     
  38 N38           17.5722    17.6009    -6.5363 N.am    
  39 C39           17.9388    18.0580    -7.7573 C.2     
  40 C40           17.0453    17.7499    -8.8921 C.ar    
  41 C41           16.0969    16.7251    -8.7352 C.ar    
  42 C42           17.1277    18.4493   -10.0926 C.ar    
  43 C43           16.2693    18.1320   -11.1252 C.ar    
  44 C44           15.3304    17.1245   -10.9699 C.ar    
  45 C45           15.2406    16.4222    -9.7847 C.ar    
  46 O46           18.9620    18.6966    -7.9128 O.2     
  47 C47           15.1885    17.8874    -6.2343 C.ar    
  48 C48           14.2441    17.7281    -5.2375 C.ar    
  49 C49           13.2197    18.6464    -5.1029 C.ar    
  50 C50           13.1399    19.7242    -5.9648 C.ar    
  51 C51           14.0848    19.8840    -6.9610 C.ar    
  52 C52           15.1117    18.9681    -7.0929 C.ar    
  53 H53            3.9869     1.7946     0.0662 H       
  54 H54            5.7836     3.2634    -0.2559 H       
  55 H55            7.4979     4.9470     2.5271 H       
  56 H56            8.1042     3.5985     1.5359 H       
  57 H57            7.1814     4.6155    -0.4892 H       
  58 H58            6.4258     5.9119     0.4683 H       
  59 H59            8.6664     6.6636     1.2187 H       
  60 H60            9.4220     5.3673     0.2612 H       
  61 H61            7.4567     4.2152     3.9473 H       
  62 H62            7.2326     3.1155     6.1321 H       
  63 H63            5.5778     1.3294     6.4676 H       
  64 H64            4.1275     0.6174     4.6112 H       
  65 H65            7.7728     2.4989    -1.1462 H       
  66 H66            9.6160     0.8671    -1.1978 H       
  67 H67            9.8048    -0.8334     0.5731 H       
  68 H68            8.1508    -0.9015     2.3960 H       
  69 H69            6.3102     0.7333     2.4501 H       
  70 H70            7.4885     5.4945    -2.0121 H       
  71 H71            8.3869     6.7113    -2.9505 H       
  72 H72            9.2616     5.3947    -2.1321 H       
  73 H73            7.4876     8.4381     0.1159 H       
  74 H74            7.3685     8.4584    -1.6600 H       
  75 H75            6.4701     7.2416    -0.7216 H       
  76 H76            9.8772     8.3035    -0.0459 H       
  77 H77           10.6328     7.0072    -1.0034 H       
  78 H78            9.6533     7.9634    -3.0710 H       
  79 H79            8.8977     9.2598    -2.1134 H       
  80 H80           11.1383    10.0115    -1.3630 H       
  81 H81           11.8939     8.7152    -2.3206 H       
  82 H82           10.9144     9.6714    -4.3881 H       
  83 H83           10.1587    10.9677    -3.4306 H       
  84 H84           12.3993    11.7195    -2.6802 H       
  85 H85           13.1550    10.4232    -3.6377 H       
  86 H86           12.1754    11.3794    -5.7053 H       
  87 H87           11.4198    12.6757    -4.7477 H       
  88 H88           13.6657    12.9717    -2.8007 H       
  89 H89           14.5641    14.1885    -3.7390 H       
  90 H90           12.7910    14.2883    -3.6190 H       
  91 H91           14.5650    11.2449    -5.8670 H       
  92 H92           15.5825    12.4414    -5.0295 H       
  93 H93           14.6841    11.2246    -4.0911 H       
  94 H94           13.3862    13.0193    -6.9699 H       
  95 H95           12.6306    14.3156    -6.0124 H       
  96 H96           14.8712    15.0674    -5.2619 H       
  97 H97           15.6268    13.7711    -6.2195 H       
  98 H98           14.5543    14.7360    -8.2782 H       
  99 H99           13.9487    16.0847    -7.2869 H       
 100 H100          16.3509    16.2694    -5.4837 H       
 101 H101          18.1467    17.7468    -5.7685 H       
 102 H102          17.8584    19.2352   -10.2150 H       
 103 H103          16.3291    18.6716   -12.0589 H       
 104 H104          14.6623    16.8862   -11.7844 H       
 105 H105          14.5051    15.6391    -9.6741 H       
 106 H106          14.3065    16.8861    -4.5642 H       
 107 H107          12.4815    18.5216    -4.3245 H       
 108 H108          12.3391    20.4413    -5.8600 H       
 109 H109          14.0223    20.7259    -7.6346 H       
 110 H110          15.8500    19.0929    -7.8713 H       
@<TRIPOS>BOND
   1    1    2 1
   2    1    6 ar
   3    1   14 ar
   4    2    3 am
   5    2   15 2
   6    3    4 1
   7    3   53 1
   8    4    5 1
   9    4   16 1
  10    4   54 1
  11    5    6 1
  12    5    7 1
  13    6   11 ar
  14    7    8 1
  15    7   55 1
  16    7   56 1
  17    8    9 1
  18    8   57 1
  19    8   58 1
  20    9   10 1
  21    9   59 1
  22    9   60 1
  23   10   22 1
  24   10   23 1
  25   10   24 1
  26   11   12 ar
  27   11   61 1
  28   12   13 ar
  29   12   62 1
  30   13   14 ar
  31   13   63 1
  32   14   64 1
  33   16   17 ar
  34   16   21 ar
  35   17   18 ar
  36   17   65 1
  37   18   19 ar
  38   18   66 1
  39   19   20 ar
  40   19   67 1
  41   20   21 ar
  42   20   68 1
  43   21   69 1
  44   22   70 1
  45   22   71 1
  46   22   72 1
  47   23   73 1
  48   23   74 1
  49   23   75 1
  50   24   25 1
  51   24   76 1
  52   24   77 1
  53   25   26 1
  54   25   78 1
  55   25   79 1
  56   26   27 1
  57   26   80 1
  58   26   81 1
  59   27   28 1
  60   27   82 1
  61   27   83 1
  62   28   29 1
  63   28   84 1
  64   28   85 1
  65   29   30 1
  66   29   86 1
  67   29   87 1
  68   30   31 1
  69   30   32 1
  70   30   33 1
  71   31   88 1
  72   31   89 1
  73   31   90 1
  74   32   91 1
  75   32   92 1
  76   32   93 1
  77   33   34 1
  78   33   94 1
  79   33   95 1
  80   34   35 1
  81   34   96 1
  82   34   97 1
  83   35   36 1
  84   35   98 1
  85   35   99 1
  86   36   37 1
  87   36   41 1
  88   37   38 1
  89   37   47 1
  90   37  100 1
  91   38   39 am
  92   38  101 1
  93   39   40 1
  94   39   46 2
  95   40   41 ar
  96   40   42 ar
  97   41   45 ar
  98   42   43 ar
  99   42  102 1
 100   43   44 ar
 101   43  103 1
 102   44   45 ar
 103   44  104 1
 104   45  105 1
 105   47   48 ar
 106   47   52 ar
 107   48   49 ar
 108   48  106 1
 109   49   50 ar
 110   49  107 1
 111   50   51 ar
 112   50  108 1
 113   51   52 ar
 114   51  109 1
 115   52  110 1

#	End of record

