#	Name: ASD01410731
#	Creating user name:	WinNT
#	Creation time:	15. 06. 2019 19:18

#	Modifying user name:	WinNT
#	Modification time:	15. 06. 2019 19:18

#	Program:	/corina/corina34_cracker 3.40 0067  02.08.2006

@<TRIPOS>MOLECULE
ASD01410731
 131  138    0    0    0
SMALL
NO_CHARGES


@<TRIPOS>ATOM
   1 C1             1.8948     0.8789     2.9374 C.3     
   2 C2             1.1225    -0.4376     2.6886 C.3     
   3 N3             1.1389    -1.1275     3.9950 N.am    
   4 C4             1.2514    -0.1159     5.0530 C.3     
   5 C5             1.4019     1.2564     4.3610 C.3     
   6 O6             3.3063     0.6563     2.9249 O.3     
   7 C7             0.0092    -0.1263     5.9061 C.2     
   8 O8            -0.8894    -0.9026     5.6595 O.2     
   9 N9            -0.1032     0.7272     6.9431 N.am    
  10 C10            1.8954    -1.3105     1.6937 C.3     
  11 C11            1.2006    -3.3934     2.9821 C.3     
  12 C12            1.0977    -2.4608     4.1561 C.2     
  13 O13            0.9756    -2.9210     5.2715 O.2     
  14 C14           -0.0450    -4.2808     2.9367 C.3     
  15 C15           -1.1879    -3.5212     2.2601 C.3     
  16 C16           -1.3595     0.8082     7.6923 C.3     
  17 C17           -2.5740     1.1891     6.8855 C.2     
  18 N18           -2.4405     1.5381     5.5906 N.am    
  19 O19           -3.6716     1.1815     7.4014 O.2     
  20 S20           -3.7563     2.0676     4.7358 S.o2    
  21 C21           -4.2225     3.6248     5.5411 C.3     
  22 C22           -1.5585    -0.1763     8.8465 C.3     
  23 C23           -1.2890     1.3020     9.1387 C.3     
  24 C24           -5.4953     4.3192     5.0527 C.3     
  25 C25           -5.4793     3.6203     6.4136 C.3     
  26 O26           -3.2508     2.3130     3.4307 O.2     
  27 O27           -4.7454     1.0730     4.9633 O.2     
  28 C28           -2.9540    -0.6904     9.0899 C.2     
  29 C29           -3.2003    -1.9751     9.0196 C.2     
  30 C30            4.0875     1.6804     2.4991 C.ar    
  31 C31            5.5001     1.5684     2.5083 C.ar    
  32 C32            3.5314     2.8435     2.0453 C.ar    
  33 C33            4.3659     3.8936     1.6081 C.ar    
  34 N34            5.6923     3.7769     1.6269 N.ar    
  35 C35            6.2842     2.6605     2.0555 C.ar    
  36 C36            3.7827     5.0927     1.1405 C.2     
  37 C37            7.6872     2.5496     2.0706 C.ar    
  38 C38            8.2723     1.3858     2.5180 C.ar    
  39 C39            7.4882     0.3151     2.9562 C.ar    
  40 C40            6.1281     0.3997     2.9567 C.ar    
  41 Cl41           8.6738     3.8710     1.5282 Cl      
  42 O42            9.6266     1.2774     2.5331 O.3     
  43 C43           10.1735     0.0456     3.0081 C.3     
  44 C44            0.2629    -5.5518     2.1427 C.3     
  45 N45            2.4893     5.3233     1.0755 N.2     
  46 C46           11.7011     0.1103     2.9513 C.3     
  47 N47           12.1829     1.1357     3.8864 N.3     
  48 C48           13.6437     1.0668     4.0370 C.3     
  49 C49           14.1085     2.1875     4.9707 C.3     
  50 O50           13.4289     2.0699     6.2236 O.3     
  51 C51           12.0043     2.1335     6.1140 C.3     
  52 C52           11.5182     1.0123     5.1919 C.3     
  53 C53            1.9980     6.4324     0.6420 C.2     
  54 C54            3.1246     7.3733     0.2417 C.3     
  55 S55            4.5844     6.3378     0.6326 S.o     
  56 C56            0.5280     6.7500     0.5453 C.3     
  57 C57           -0.2872     5.5115     0.9229 C.3     
  58 C58            0.1896     7.8946     1.5025 C.3     
  59 C59           -0.4557    -4.6566     4.3618 C.3     
  60 N60            1.3081    -2.6561     1.7252 N.am    
  61 O61            0.8391    -2.4971    -0.5549 O.3     
  62 C62            0.3481    -3.1653    -1.7468 C.3     
  63 C63           -1.0940    -3.6221    -1.5180 C.3     
  64 C64            0.3946    -2.1966    -2.9302 C.3     
  65 C65            1.2266    -4.3811    -2.0483 C.3     
  66 C66            0.8638    -3.2166     0.5829 C.2     
  67 O67            0.4854    -4.3713     0.5798 O.2     
  68 H68            1.6142     1.6409     2.2102 H       
  69 H69            0.1034    -0.2429     2.3543 H       
  70 H70            2.1279    -0.3189     5.6683 H       
  71 H71            2.1428     1.8682     4.8756 H       
  72 H72            0.4422     1.7709     4.3127 H       
  73 H73            0.6477     1.2879     7.1934 H       
  74 H74            1.8077    -0.8930     0.6906 H       
  75 H75            2.9451    -1.3591     1.9834 H       
  76 H76            2.0824    -4.0226     3.1025 H       
  77 H77           -0.8954    -3.2534     1.2448 H       
  78 H78           -2.0753    -4.1533     2.2278 H       
  79 H79           -1.4073    -2.6156     2.8258 H       
  80 H80           -1.5737     1.4792     5.1593 H       
  81 H81           -3.3930     4.2578     5.8561 H       
  82 H82           -0.7546    -0.8842     9.0485 H       
  83 H83           -0.3078     1.5663     9.5331 H       
  84 H84           -2.1211     1.9020     9.5069 H       
  85 H85           -5.5033     5.4092     5.0468 H       
  86 H86           -6.0526     3.8404     4.2475 H       
  87 H87           -6.0261     2.6816     6.5038 H       
  88 H88           -5.4768     4.2504     7.3030 H       
  89 H89           -3.7511     0.0003     9.3223 H       
  90 H90           -4.2004    -2.3436     9.1940 H       
  91 H91           -2.4032    -2.6658     8.7872 H       
  92 H92            2.4578     2.9582     2.0213 H       
  93 H93            7.9663    -0.5893     3.3026 H       
  94 H94            5.5348    -0.4356     3.2985 H       
  95 H95            9.8549    -0.1205     4.0372 H       
  96 H96            9.8210    -0.7739     2.3819 H       
  97 H97            1.3354    -5.6140     1.9580 H       
  98 H98           -0.0586    -6.4233     2.7130 H       
  99 H99           -0.2686    -5.5238     1.1915 H       
 100 H100          12.1164    -0.8585     3.2289 H       
 101 H101          12.0166     0.3644     1.9394 H       
 102 H102          13.9207     0.1015     4.4608 H       
 103 H103          14.1161     1.1860     3.0620 H       
 104 H104          15.1835     2.1055     5.1307 H       
 105 H105          13.8793     3.1539     4.5217 H       
 106 H106          11.5576     2.0125     7.1009 H       
 107 H107          11.7140     3.0984     5.6982 H       
 108 H108          10.4392     1.0917     5.0599 H       
 109 H109          11.7613     0.0462     5.6342 H       
 110 H110           3.0799     7.6118    -0.8210 H       
 111 H111           3.1150     8.2795     0.8474 H       
 112 H112           5.0513     6.8890     1.7672 H       
 113 H113           0.2867     7.0465    -0.4754 H       
 114 H114          -0.0459     5.2150     1.9436 H       
 115 H115          -1.3505     5.7412     0.8530 H       
 116 H116          -0.0461     4.6961     0.2410 H       
 117 H117           0.4309     7.5981     2.5233 H       
 118 H118           0.7703     8.7769     1.2335 H       
 119 H119          -0.8737     8.1243     1.4326 H       
 120 H120          -0.6751    -3.7510     4.9275 H       
 121 H121          -1.3431    -5.2887     4.3295 H       
 122 H122           0.3585    -5.1977     4.8438 H       
 123 H123          -1.7198    -2.7559    -1.3032 H       
 124 H124          -1.4626    -4.1237    -2.4128 H       
 125 H125          -1.1271    -4.3122    -0.6749 H       
 126 H126           1.4220    -1.8711    -3.0932 H       
 127 H127           0.0260    -2.6982    -3.8250 H       
 128 H128          -0.2313    -1.3303    -2.7154 H       
 129 H129           1.1935    -5.0713    -1.2052 H       
 130 H130           0.8580    -4.8827    -2.9431 H       
 131 H131           2.2540    -4.0557    -2.2113 H       
@<TRIPOS>BOND
   1    1    2 1
   2    1    6 1
   3    1    5 1
   4    1   68 1
   5    2    3 1
   6    2   10 1
   7    2   69 1
   8    3    4 1
   9    3   12 am
  10    4    5 1
  11    4    7 1
  12    4   70 1
  13    5   71 1
  14    5   72 1
  15    6   30 1
  16    7    8 2
  17    7    9 am
  18    9   16 1
  19    9   73 1
  20   10   60 1
  21   10   74 1
  22   10   75 1
  23   11   12 1
  24   11   14 1
  25   11   60 1
  26   11   76 1
  27   12   13 2
  28   14   15 1
  29   14   44 1
  30   14   59 1
  31   15   77 1
  32   15   78 1
  33   15   79 1
  34   16   17 1
  35   16   22 1
  36   16   23 1
  37   17   18 am
  38   17   19 2
  39   18   20 am
  40   18   80 1
  41   20   21 1
  42   20   26 2
  43   20   27 2
  44   21   24 1
  45   21   25 1
  46   21   81 1
  47   22   23 1
  48   22   28 1
  49   22   82 1
  50   23   83 1
  51   23   84 1
  52   24   25 1
  53   24   85 1
  54   24   86 1
  55   25   87 1
  56   25   88 1
  57   28   29 2
  58   28   89 1
  59   29   90 1
  60   29   91 1
  61   30   31 ar
  62   30   32 ar
  63   31   35 ar
  64   31   40 ar
  65   32   33 ar
  66   32   92 1
  67   33   34 ar
  68   33   36 1
  69   34   35 ar
  70   35   37 ar
  71   36   45 1
  72   36   55 2
  73   37   38 ar
  74   37   41 1
  75   38   39 ar
  76   38   42 1
  77   39   40 ar
  78   39   93 1
  79   40   94 1
  80   42   43 1
  81   43   46 1
  82   43   95 1
  83   43   96 1
  84   44   97 1
  85   44   98 1
  86   44   99 1
  87   45   53 2
  88   46   47 1
  89   46  100 1
  90   46  101 1
  91   47   48 1
  92   47   52 1
  93   48   49 1
  94   48  102 1
  95   48  103 1
  96   49   50 1
  97   49  104 1
  98   49  105 1
  99   50   51 1
 100   51   52 1
 101   51  106 1
 102   51  107 1
 103   52  108 1
 104   52  109 1
 105   53   54 1
 106   53   56 1
 107   54   55 1
 108   54  110 1
 109   54  111 1
 110   55  112 1
 111   56   57 1
 112   56   58 1
 113   56  113 1
 114   57  114 1
 115   57  115 1
 116   57  116 1
 117   58  117 1
 118   58  118 1
 119   58  119 1
 120   59  120 1
 121   59  121 1
 122   59  122 1
 123   60   66 am
 124   61   62 1
 125   61   66 1
 126   62   63 1
 127   62   64 1
 128   62   65 1
 129   63  123 1
 130   63  124 1
 131   63  125 1
 132   64  126 1
 133   64  127 1
 134   64  128 1
 135   65  129 1
 136   65  130 1
 137   65  131 1
 138   66   67 2

#	End of record

