#	Name: ASD01200036
#	Creating user name:	WinNT
#	Creation time:	15. 06. 2019 19:08

#	Modifying user name:	WinNT
#	Modification time:	15. 06. 2019 19:08

#	Program:	/corina/corina34_cracker 3.40 0067  02.08.2006

@<TRIPOS>MOLECULE
ASD01200036
  24   25    0    0    0
SMALL
NO_CHARGES


@<TRIPOS>ATOM
   1 C1            -0.0886     1.2327     0.0412 C.ar    
   2 C2             0.1063    -0.0806    -0.3555 C.ar    
   3 C3             1.3779    -0.6148    -0.4036 C.ar    
   4 C4             2.4735     0.1637    -0.0529 C.ar    
   5 C5             2.2794     1.4948     0.3494 C.ar    
   6 C6             0.9858     2.0207     0.3924 C.ar    
   7 C7             3.4331     2.3318     0.7247 C.2     
   8 N8             3.2568     3.6405     0.9943 N.am    
   9 C9             4.3440     4.4293     1.3479 C.2     
  10 N10            3.7541    -0.3718    -0.0997 N.pl3   
  11 N11            4.2845     5.6941     1.6263 N.2     
  12 C12            5.4187     6.2899     1.9442 C.2     
  13 C13            6.4871     5.4905     1.9341 C.2     
  14 S14            5.9544     3.8720     1.4866 S.3     
  15 O15            4.5440     1.8416     0.7909 O.2     
  16 H16           -1.0875     1.6421     0.0709 H       
  17 H17           -0.7424    -0.6902    -0.6285 H       
  18 H18            1.5212    -1.6393    -0.7139 H       
  19 H19            0.8280     3.0437     0.7004 H       
  20 H20            2.3707     4.0315     0.9414 H       
  21 H21            3.8803    -1.3322    -0.0487 H       
  22 H22            4.5222     0.2145    -0.1832 H       
  23 H23            5.4772     7.3394     2.1922 H       
  24 H24            7.5009     5.7839     2.1633 H       
@<TRIPOS>BOND
   1    1    2 ar
   2    1    6 ar
   3    1   16 1
   4    2    3 ar
   5    2   17 1
   6    3    4 ar
   7    3   18 1
   8    4    5 ar
   9    4   10 1
  10    5    6 ar
  11    5    7 1
  12    6   19 1
  13    7    8 am
  14    7   15 2
  15    8    9 1
  16    8   20 1
  17    9   11 2
  18    9   14 1
  19   10   21 1
  20   10   22 1
  21   11   12 1
  22   12   13 2
  23   12   23 1
  24   13   14 1
  25   13   24 1

#	End of record

