#	Name: ASD02030438
#	Creating user name:	WinNT
#	Creation time:	15. 06. 2019 20:15

#	Modifying user name:	WinNT
#	Modification time:	15. 06. 2019 20:15

#	Program:	/corina/corina34_cracker 3.40 0067  02.08.2006

@<TRIPOS>MOLECULE
ASD02030438
  47   48    0    0    0
SMALL
NO_CHARGES


@<TRIPOS>ATOM
   1 C1             0.0352     1.1357     0.0378 C.2     
   2 O2             0.0904    -0.0782     0.0150 O.2     
   3 N3             2.5153     1.4722     0.1034 N.2     
   4 N4             3.3170     2.4796     0.0471 N.pl3   
   5 N5             2.6330     3.5633    -0.0728 N.2     
   6 N6             1.3778     3.2675    -0.0953 N.2     
   7 C7             1.2812     1.9335     0.0162 C.2     
   8 C8             4.7158     2.4064     0.1071 C.ar    
   9 C9             5.4766     3.5657     0.0361 C.ar    
  10 C10            6.8545     3.4904     0.0959 C.ar    
  11 C11            7.4762     2.2622     0.2260 C.ar    
  12 C12            6.7212     1.1059     0.2969 C.ar    
  13 C13            5.3428     1.1751     0.2434 C.ar    
  14 N14           -1.1611     1.7553     0.0772 N.am    
  15 C15           -2.4116     0.9908    -0.0448 C.3     
  16 C16           -3.3346     1.3789     1.1153 C.3     
  17 N17           -3.4987     2.8385     1.1390 N.3     
  18 C18           -2.2193     3.5145     1.3920 C.3     
  19 C19           -1.2508     3.2132     0.2494 C.3     
  20 C20           -3.0900     1.3240    -1.3750 C.3     
  21 C21           -2.1066    -0.5071     0.0201 C.3     
  22 H22            4.9916     4.5252    -0.0661 H       
  23 H23            7.4468     4.3918     0.0408 H       
  24 H24            8.5538     2.2058     0.2718 H       
  25 H25            7.2097     0.1480     0.3981 H       
  26 H26            4.7534     0.2721     0.3033 H       
  27 H27           -4.3071     0.9056     0.9802 H       
  28 H28           -2.8955     1.0469     2.0561 H       
  29 H29           -3.9194     3.1690     0.2835 H       
  30 H30           -2.3831     4.5902     1.4577 H       
  31 H31           -1.7958     3.1528     2.3290 H       
  32 H32           -0.2664     3.6148     0.4900 H       
  33 H33           -1.6204     3.6684    -0.6695 H       
  34 H34           -2.4245     1.0629    -2.1978 H       
  35 H35           -4.0163     0.7562    -1.4628 H       
  36 H36           -3.3127     2.3904    -1.4122 H       
  37 H37           -1.5468    -0.7249     0.9296 H       
  38 H38           -3.0410    -1.0683     0.0254 H       
  39 H39           -1.5147    -0.7954    -0.8487 H       
  40 C40           14.7252    11.5784     8.4758 C.2     
  41 C41           14.7457    10.0716     8.4675 C.3     
  42 O42           15.7633    12.1967     8.4692 O.2     
  43 O43           13.5538    12.2337     8.4849 O.3     
  44 F44           16.0708     9.6232     8.4524 F       
  45 F45           14.1035     9.5902     9.6134 F       
  46 F46           14.0817     9.6024     7.3290 F       
  47 H47           13.5913    13.1999     8.4900 H       
@<TRIPOS>BOND
   1    1    2 2
   2    1    7 1
   3    1   14 am
   4    3    4 1
   5    3    7 2
   6    4    5 1
   7    4    8 1
   8    5    6 2
   9    6    7 1
  10    8    9 ar
  11    8   13 ar
  12    9   10 ar
  13    9   22 1
  14   10   11 ar
  15   10   23 1
  16   11   12 ar
  17   11   24 1
  18   12   13 ar
  19   12   25 1
  20   13   26 1
  21   14   15 1
  22   14   19 1
  23   15   16 1
  24   15   20 1
  25   15   21 1
  26   16   17 1
  27   16   27 1
  28   16   28 1
  29   17   18 1
  30   17   29 1
  31   18   19 1
  32   18   30 1
  33   18   31 1
  34   19   32 1
  35   19   33 1
  36   20   34 1
  37   20   35 1
  38   20   36 1
  39   21   37 1
  40   21   38 1
  41   21   39 1
  42   40   41 1
  43   40   42 2
  44   40   43 1
  45   41   44 1
  46   41   45 1
  47   41   46 1
  48   43   47 1

#	End of record

