#	Name: ASD01810051
#	Creating user name:	WinNT
#	Creation time:	15. 06. 2019 19:23

#	Modifying user name:	WinNT
#	Modification time:	15. 06. 2019 19:23

#	Program:	/corina/corina34_cracker 3.40 0067  02.08.2006

@<TRIPOS>MOLECULE
ASD01810051
  62   66    0    0    0
SMALL
NO_CHARGES


@<TRIPOS>ATOM
   1 C1             0.0733     1.1640    -0.9648 C.ar    
   2 C2             0.1184    -0.2170    -1.0591 C.ar    
   3 C3             1.3337    -0.8761    -1.0556 C.ar    
   4 C4             2.5112    -0.1513    -0.9578 C.ar    
   5 C5             2.4651     1.2414    -0.8632 C.ar    
   6 C6             1.2421     1.8939    -0.8670 C.ar    
   7 N7             3.8561    -0.5124    -0.9289 N.am    
   8 C8             4.5943     0.6085    -0.8217 C.2     
   9 N9             3.7841     1.6829    -0.7798 N.am    
  10 C10            4.2156     3.0783    -0.6666 C.3     
  11 C11            5.0054     3.2660     0.6316 C.3     
  12 C12            5.5053     4.7101     0.7147 C.3     
  13 N13            6.3581     5.0017    -0.4446 N.3     
  14 C14            5.6083     4.8741    -1.7008 C.3     
  15 C15            5.1116     3.4349    -1.8560 C.3     
  16 O16            5.8096     0.6449    -0.7705 O.2     
  17 C17            6.9675     6.3332    -0.3282 C.3     
  18 C18            7.9437     6.5523    -1.4874 C.3     
  19 C19            8.5293     7.9631    -1.3950 C.3     
  20 N20            7.4434     8.9500    -1.4528 N.3     
  21 C21            6.5193     8.7894    -0.3229 C.3     
  22 C22            5.8736     7.4032    -0.3833 C.3     
  23 C23            7.9772    10.3176    -1.5061 C.3     
  24 C24            6.8880    11.2655    -1.9376 C.ar    
  25 Cl25          -1.3567    -1.1240    -1.1815 Cl      
  26 C26            6.4906    11.3051    -3.2608 C.ar    
  27 C27            5.4914    12.1748    -3.6567 C.ar    
  28 C28            4.8895    13.0042    -2.7292 C.ar    
  29 C29            5.2864    12.9638    -1.4054 C.ar    
  30 C30            6.2823    12.0914    -1.0088 C.ar    
  31 C31            7.1468    10.4008    -4.2720 C.3     
  32 H32           -0.8793     1.6728    -0.9722 H       
  33 H33            1.3655    -1.9532    -1.1285 H       
  34 H34            1.2032     2.9707    -0.7944 H       
  35 H35            4.2020    -1.4173    -0.9772 H       
  36 H36            3.3421     3.7303    -0.6590 H       
  37 H37            4.3599     3.0547     1.4841 H       
  38 H38            5.8566     2.5852     0.6414 H       
  39 H39            4.6531     5.3897     0.7188 H       
  40 H40            6.0802     4.8432     1.6311 H       
  41 H41            4.7556     5.5529    -1.6854 H       
  42 H42            6.2581     5.1264    -2.5388 H       
  43 H43            5.9644     2.7568    -1.8854 H       
  44 H44            4.5418     3.3443    -2.7808 H       
  45 H45            7.5033     6.4071     0.6181 H       
  46 H46            8.7486     5.8196    -1.4287 H       
  47 H47            7.4157     6.4387    -2.4342 H       
  48 H48            9.0688     8.0715    -0.4541 H       
  49 H49            9.2140     8.1274    -2.2270 H       
  50 H50            7.0682     8.8939     0.6129 H       
  51 H51            5.7440     9.5538    -0.3764 H       
  52 H52            5.3131     7.3030    -1.3128 H       
  53 H53            5.1995     7.2785     0.4641 H       
  54 H54            8.3390    10.6051    -0.5189 H       
  55 H55            8.7992    10.3592    -2.2206 H       
  56 H56            5.1813    12.2063    -4.6907 H       
  57 H57            4.1095    13.6840    -3.0386 H       
  58 H58            4.8164    13.6121    -0.6807 H       
  59 H59            6.5923    12.0598     0.0252 H       
  60 H60            6.6607     9.4253    -4.2566 H       
  61 H61            7.0522    10.8382    -5.2659 H       
  62 H62            8.2021    10.2849    -4.0250 H       
@<TRIPOS>BOND
   1    1    2 ar
   2    1    6 ar
   3    1   32 1
   4    2    3 ar
   5    2   25 1
   6    3    4 ar
   7    3   33 1
   8    4    5 ar
   9    4    7 1
  10    5    6 ar
  11    5    9 1
  12    6   34 1
  13    7    8 am
  14    7   35 1
  15    8    9 am
  16    8   16 2
  17    9   10 1
  18   10   11 1
  19   10   15 1
  20   10   36 1
  21   11   12 1
  22   11   37 1
  23   11   38 1
  24   12   13 1
  25   12   39 1
  26   12   40 1
  27   13   14 1
  28   13   17 1
  29   14   15 1
  30   14   41 1
  31   14   42 1
  32   15   43 1
  33   15   44 1
  34   17   18 1
  35   17   22 1
  36   17   45 1
  37   18   19 1
  38   18   46 1
  39   18   47 1
  40   19   20 1
  41   19   48 1
  42   19   49 1
  43   20   21 1
  44   20   23 1
  45   21   22 1
  46   21   50 1
  47   21   51 1
  48   22   52 1
  49   22   53 1
  50   23   24 1
  51   23   54 1
  52   23   55 1
  53   24   26 ar
  54   24   30 ar
  55   26   27 ar
  56   26   31 1
  57   27   28 ar
  58   27   56 1
  59   28   29 ar
  60   28   57 1
  61   29   30 ar
  62   29   58 1
  63   30   59 1
  64   31   60 1
  65   31   61 1
  66   31   62 1

#	End of record

