#	Name: ASD02610005
#	Creating user name:	WinNT
#	Creation time:	15. 06. 2019 20:25

#	Modifying user name:	WinNT
#	Modification time:	15. 06. 2019 20:25

#	Program:	/corina/corina34_cracker 3.40 0067  02.08.2006

@<TRIPOS>MOLECULE
ASD02610005
  98  100    0    0    0
SMALL
NO_CHARGES


@<TRIPOS>ATOM
   1 C1             0.0176     1.2343    -0.0694 C.3     
   2 C2             0.2375    -0.2980    -0.1268 C.3     
   3 C3             1.5701    -0.5141     0.5525 C.2     
   4 C4             2.2449     0.6100     0.6365 C.2     
   5 C5             1.4784     1.7278    -0.0064 C.3     
   6 C6             3.5500     0.7766     1.3495 C.3     
   7 C7             4.3649     1.8654     0.6030 C.3     
   8 C8             4.3849     1.7662    -0.8542 C.3     
   9 C9             3.3212     2.6341    -1.5021 C.3     
  10 C10            1.9748     1.9668    -1.4302 C.3     
  11 O11            0.2917    -0.7511    -1.5052 O.3     
  12 C12           -0.1367    -2.0046    -1.7548 C.2     
  13 O13           -0.5445    -2.6997    -0.8451 O.2     
  14 C14           -0.1108    -2.5305    -3.1267 C.2     
  15 C15            0.3948    -1.6684    -4.2547 C.3     
  16 C16           -0.5338    -3.7680    -3.3730 C.2     
  17 C17           -1.0394    -4.6300    -2.2451 C.3     
  18 C18            2.0600    -1.8435     1.0661 C.3     
  19 O19           -0.7169     1.6148     1.1239 O.3     
  20 C20           -2.0539     1.6782     1.0223 C.2     
  21 C21           -2.8830     2.0662     2.2193 C.3     
  22 O22           -2.5925     1.4240    -0.0290 O.2     
  23 H23            1.5500     2.6348     0.5938 H       
  24 O24            1.0080     2.7986    -2.1242 O.3     
  25 C25            2.0589     0.6195    -2.1503 C.3     
  26 C26            0.8087     4.0346    -1.6401 C.2     
  27 O27            4.1614     0.3831    -1.2356 O.3     
  28 C28            4.7269    -0.0324    -2.3798 C.2     
  29 C29            4.5387    -1.4550    -2.8400 C.3     
  30 O30            5.3867     0.7341    -3.0408 O.2     
  31 O31            3.7413     1.1232     2.6938 O.3     
  32 C32            5.1997     1.2254     2.7730 C.3     
  33 C33            5.7112     1.5984     1.3502 C.3     
  34 H34            4.1064    -0.1486     1.1996 H       
  35 O35            3.8717     3.1553     0.9705 O.3     
  36 O36            6.4206     0.5088     0.7573 O.3     
  37 C37            6.5776     2.8589     1.3900 C.3     
  38 C38           -4.3644     2.0617     1.8367 C.3     
  39 C39           -5.2063     2.4557     3.0520 C.3     
  40 C40           -6.6876     2.4511     2.6695 C.3     
  41 C41           -7.5295     2.8451     3.8848 C.3     
  42 C42            5.2807    -1.6660    -4.1614 C.3     
  43 C43            5.0896    -3.1103    -4.6286 C.3     
  44 C44           -0.0897     4.9958    -2.3749 C.3     
  45 O45            5.7541    -0.0284     3.1762 O.3     
  46 C46            5.4150    -0.4117     4.5104 C.3     
  47 C47            6.0590    -1.7617     4.8324 C.3     
  48 H48            5.4791     2.0033     3.4836 H       
  49 O49            1.3496     4.3765    -0.6152 O.2     
  50 H50           -0.4817     1.5947    -0.9687 H       
  51 H51           -0.5540    -0.8166     0.4143 H       
  52 H52            5.3646     2.0776    -1.2166 H       
  53 H53            3.2752     3.5923    -0.9845 H       
  54 H54            3.5828     2.8032    -2.5466 H       
  55 H55            1.4683    -1.8166    -4.3721 H       
  56 H56           -0.1133    -1.9443    -5.1787 H       
  57 H57            0.1952    -0.6209    -4.0290 H       
  58 H58           -0.5148    -4.1545    -4.3813 H       
  59 H59           -1.3395    -5.6019    -2.6369 H       
  60 H60           -0.2482    -4.7641    -1.5075 H       
  61 H61           -1.8964    -4.1475    -1.7750 H       
  62 H62            1.3084    -2.6082     0.8698 H       
  63 H63            2.9886    -2.1084     0.5607 H       
  64 H64            2.2372    -1.7753     2.1395 H       
  65 H65           -2.7138     1.3524     3.0254 H       
  66 H66           -2.5967     3.0641     2.5516 H       
  67 H67            1.0978     0.3938    -2.6122 H       
  68 H68            2.8297     0.6662    -2.9195 H       
  69 H69            2.3091    -0.1614    -1.4321 H       
  70 H70            4.9362    -2.1360    -2.0874 H       
  71 H71            3.4765    -1.6528    -2.9842 H       
  72 H72            4.3332     3.8894     0.5425 H       
  73 H73            7.2624     0.3067     1.1879 H       
  74 H74            6.0411     3.6522     1.9106 H       
  75 H75            7.5079     2.6439     1.9158 H       
  76 H76            6.8009     3.1786     0.3722 H       
  77 H77           -4.5337     2.7755     1.0306 H       
  78 H78           -4.6508     1.0638     1.5045 H       
  79 H79           -5.0370     1.7418     3.8582 H       
  80 H80           -4.9199     3.4535     3.3843 H       
  81 H81           -6.8569     3.1650     1.8633 H       
  82 H82           -6.9740     1.4532     2.3372 H       
  83 H83           -8.5848     2.8418     3.6122 H       
  84 H84           -7.3602     2.1312     4.6909 H       
  85 H85           -7.2431     3.8430     4.2170 H       
  86 H86            4.8831    -0.9851    -4.9140 H       
  87 H87            6.3428    -1.4682    -4.0172 H       
  88 H88            5.4872    -3.7912    -3.8760 H       
  89 H89            4.0275    -3.3081    -4.7727 H       
  90 H90            5.6182    -3.2606    -5.5699 H       
  91 H91           -0.4839     4.5133    -3.2693 H       
  92 H92           -0.9154     5.2893    -1.7266 H       
  93 H93            0.4802     5.8800    -2.6603 H       
  94 H94            5.7805     0.3411     5.2088 H       
  95 H95            4.3319    -0.4953     4.6002 H       
  96 H96            5.8003    -2.0541     5.8501 H       
  97 H97            5.6935    -2.5145     4.1340 H       
  98 H98            7.1421    -1.6782     4.7426 H       
@<TRIPOS>BOND
   1    1    2 1
   2    1    5 1
   3    1   19 1
   4    1   50 1
   5    2    3 1
   6    2   11 1
   7    2   51 1
   8    3    4 2
   9    3   18 1
  10    4    5 1
  11    4    6 1
  12    5   10 1
  13    5   23 1
  14    6    7 1
  15    6   31 1
  16    6   34 1
  17    7   33 1
  18    7   35 1
  19    7    8 1
  20    8    9 1
  21    8   27 1
  22    8   52 1
  23    9   10 1
  24    9   53 1
  25    9   54 1
  26   10   24 1
  27   10   25 1
  28   11   12 1
  29   12   13 2
  30   12   14 1
  31   14   15 1
  32   14   16 2
  33   15   55 1
  34   15   56 1
  35   15   57 1
  36   16   17 1
  37   16   58 1
  38   17   59 1
  39   17   60 1
  40   17   61 1
  41   18   62 1
  42   18   63 1
  43   18   64 1
  44   19   20 1
  45   20   21 1
  46   20   22 2
  47   21   38 1
  48   21   65 1
  49   21   66 1
  50   24   26 1
  51   25   67 1
  52   25   68 1
  53   25   69 1
  54   26   44 1
  55   26   49 2
  56   27   28 1
  57   28   29 1
  58   28   30 2
  59   29   42 1
  60   29   70 1
  61   29   71 1
  62   31   32 1
  63   32   33 1
  64   32   45 1
  65   32   48 1
  66   33   36 1
  67   33   37 1
  68   35   72 1
  69   36   73 1
  70   37   74 1
  71   37   75 1
  72   37   76 1
  73   38   39 1
  74   38   77 1
  75   38   78 1
  76   39   40 1
  77   39   79 1
  78   39   80 1
  79   40   41 1
  80   40   81 1
  81   40   82 1
  82   41   83 1
  83   41   84 1
  84   41   85 1
  85   42   43 1
  86   42   86 1
  87   42   87 1
  88   43   88 1
  89   43   89 1
  90   43   90 1
  91   44   91 1
  92   44   92 1
  93   44   93 1
  94   45   46 1
  95   46   47 1
  96   46   94 1
  97   46   95 1
  98   47   96 1
  99   47   97 1
 100   47   98 1

#	End of record

