#	Name: ASD04660020
#	Creating user name:	WinNT
#	Creation time:	15. 06. 2019 20:52

#	Modifying user name:	WinNT
#	Modification time:	15. 06. 2019 20:52

#	Program:	/corina/corina34_cracker 3.40 0067  02.08.2006

@<TRIPOS>MOLECULE
ASD04660020
  44   47    0    0    0
SMALL
NO_CHARGES


@<TRIPOS>ATOM
   1 C1             6.3269     1.5350     2.9204 C.ar    
   2 C2             6.4055     0.1456     2.8372 C.ar    
   3 C3             5.6348    -0.5982     1.9835 C.ar    
   4 C4             4.7177     0.0602     1.1472 C.ar    
   5 C5             4.6510     1.4506     1.2433 C.ar    
   6 C6             5.4357     2.2212     2.1137 C.ar    
   7 C7             3.8605    -0.5575     0.2209 C.ar    
   8 C8             3.0238     0.2309    -0.5209 C.ar    
   9 C9             2.9785     1.6201    -0.4042 C.ar    
  10 C10            3.8055     2.2651     0.4961 C.ar    
  11 N11            4.0508     3.5734     0.8937 N.am    
  12 C12            5.0123     3.6023     1.8541 C.2     
  13 O13            5.4460     4.5983     2.4023 O.2     
  14 O14            2.4661    -3.4541     4.1601 O.3     
  15 C15            0.1825    -3.5000     3.4307 C.ar    
  16 C16           -0.7866    -4.3599     2.9473 C.ar    
  17 C17           -0.1663    -2.4700     4.2848 C.ar    
  18 C18           -1.4847    -2.2968     4.6580 C.ar    
  19 C19           -2.4607    -3.1588     4.1744 C.ar    
  20 C20           -2.1068    -4.1925     3.3165 C.ar    
  21 N21           -3.7949    -2.9869     4.5501 N.pl3   
  22 S22            3.8635    -2.3079     0.0188 S.o2    
  23 O23            2.8665    -2.6016    -0.9502 O.2     
  24 O24            5.2238    -2.6929    -0.1245 O.2     
  25 N25            3.3386    -2.9669     1.4444 N.am    
  26 C26            1.9767    -2.7033     1.9157 C.3     
  27 C27            1.6230    -3.6896     3.0305 C.3     
  28 H28            6.9555     2.0733     3.6144 H       
  29 H29            7.1080    -0.3688     3.4762 H       
  30 H30            5.7308    -1.6735     1.9535 H       
  31 H31            2.3661    -0.2460    -1.2325 H       
  32 H32            2.2976     2.1916    -1.0174 H       
  33 H33            3.6007     4.3548     0.5363 H       
  34 H34            2.3876    -2.5644     4.5307 H       
  35 H35           -0.5108    -5.1631     2.2801 H       
  36 H36            0.5931    -1.8004     4.6607 H       
  37 H37           -1.7564    -1.4924     5.3254 H       
  38 H38           -2.8633    -4.8642     2.9384 H       
  39 H39           -4.0408    -2.2649     5.1495 H       
  40 H40           -4.4756    -3.5894     4.2118 H       
  41 H41            3.9329    -3.5273     1.9675 H       
  42 H42            1.9155    -1.6847     2.2988 H       
  43 H43            1.2766    -2.8232     1.0889 H       
  44 H44            1.7699    -4.7091     2.6739 H       
@<TRIPOS>BOND
   1    1    2 ar
   2    1    6 ar
   3    1   28 1
   4    2    3 ar
   5    2   29 1
   6    3    4 ar
   7    3   30 1
   8    4    5 ar
   9    4    7 ar
  10    5    6 ar
  11    5   10 ar
  12    6   12 1
  13    7    8 ar
  14    7   22 1
  15    8    9 ar
  16    8   31 1
  17    9   10 ar
  18    9   32 1
  19   10   11 1
  20   11   12 am
  21   11   33 1
  22   12   13 2
  23   14   27 1
  24   14   34 1
  25   15   16 ar
  26   15   17 ar
  27   15   27 1
  28   16   20 ar
  29   16   35 1
  30   17   18 ar
  31   17   36 1
  32   18   19 ar
  33   18   37 1
  34   19   20 ar
  35   19   21 1
  36   20   38 1
  37   21   39 1
  38   21   40 1
  39   22   23 2
  40   22   24 2
  41   22   25 am
  42   25   26 1
  43   25   41 1
  44   26   27 1
  45   26   42 1
  46   26   43 1
  47   27   44 1

#	End of record

