#	Name: ASD03091848
#	Creating user name:	WinNT
#	Creation time:	15. 06. 2019 20:31

#	Modifying user name:	WinNT
#	Modification time:	15. 06. 2019 20:31

#	Program:	/corina/corina34_cracker 3.40 0067  02.08.2006

@<TRIPOS>MOLECULE
ASD03091848
  79   81    0    0    0
SMALL
NO_CHARGES


@<TRIPOS>ATOM
   1 C1            -4.5365     1.2610    -4.7988 C.ar    
   2 C2            -4.4136    -0.1231    -4.7649 C.ar    
   3 C3            -4.2752    -0.7830    -3.5600 C.ar    
   4 C4            -4.2577    -0.0684    -2.3723 C.ar    
   5 C5            -4.3809     1.3303    -2.3981 C.ar    
   6 C6            -4.5150     1.9901    -3.6254 C.ar    
   7 O7            -4.6728     1.9001    -5.9914 O.3     
   8 O8            -4.1225    -0.7181    -1.1889 O.3     
   9 C9            -4.3635     2.0962    -1.1460 C.2     
  10 C10           -4.4961     3.5971    -1.1789 C.3     
  11 C11           -4.4480     4.1447     0.2490 C.3     
  12 C12           -4.5805     5.6455     0.2161 C.ar    
  13 C13           -5.8322     6.2294     0.2807 C.ar    
  14 C14           -5.9564     7.6049     0.2503 C.ar    
  15 C15           -4.8238     8.4005     0.1552 C.ar    
  16 C16           -3.5691     7.8122     0.0910 C.ar    
  17 C17           -3.4499     6.4364     0.1270 C.ar    
  18 O18           -4.9434     9.7541     0.1247 O.3     
  19 O19           -4.2426     1.5212    -0.0848 O.2     
  20 C20           -3.9090    12.4574     0.9025 C.3     
  21 C21           -5.2511    11.8753     1.3507 C.3     
  22 C22           -5.1909    10.3707     1.2914 C.2     
  23 N23           -5.5335    12.3002     2.7282 N.3     
  24 O24           -5.3655     9.7192     2.2939 O.2     
  25 C25           -4.0003    13.9843     0.8710 C.3     
  26 C26           -2.8152    12.0320     1.8841 C.3     
  27 C27           -8.4510    11.2519     3.0745 C.2     
  28 N28           -6.7830    13.0405     2.7993 N.3     
  29 C29           -7.7312    12.3949     3.7428 C.3     
  30 C30           -8.7201    13.5366     4.0883 C.3     
  31 C31           -7.8040    14.7803     4.1505 C.3     
  32 C32           -6.5609    14.4061     3.3222 C.3     
  33 O33           -8.2132    10.9794     1.9169 O.2     
  34 C34          -10.5193     8.4191     4.1740 C.3     
  35 C35          -10.0587     9.4213     3.1137 C.3     
  36 C36          -11.2568     9.9496     2.3678 C.2     
  37 N37           -9.3590    10.5325     3.7634 N.am    
  38 O38          -11.5010    11.1322     2.3777 O.2     
  39 C39          -11.5605     9.0783     5.0808 C.3     
  40 C40          -11.1390     7.1998     3.4883 C.3     
  41 H41           -4.4268    -0.6859    -5.6866 H       
  42 H42           -4.1806    -1.8587    -3.5428 H       
  43 H43           -4.6103     3.0655    -3.6543 H       
  44 H44           -5.5903     2.0085    -6.2770 H       
  45 H45           -3.2051    -0.8305    -0.9044 H       
  46 H46           -3.6764     4.0216    -1.7586 H       
  47 H47           -5.4458     3.8679    -1.6401 H       
  48 H48           -5.2677     3.7202     0.8287 H       
  49 H49           -3.4983     3.8738     0.7102 H       
  50 H50           -6.7136     5.6096     0.3547 H       
  51 H51           -6.9343     8.0605     0.3001 H       
  52 H52           -2.6859     8.4294     0.0166 H       
  53 H53           -2.4733     5.9779     0.0773 H       
  54 H54           -3.6670    12.0873    -0.0938 H       
  55 H55           -6.0411    12.2336     0.6907 H       
  56 H56           -5.5454    11.5098     3.3552 H       
  57 H57           -4.3043    14.3504     1.8517 H       
  58 H58           -3.0268    14.4013     0.6133 H       
  59 H59           -4.7350    14.2891     0.1257 H       
  60 H60           -3.0572    12.4021     2.8804 H       
  61 H61           -2.7502    10.9442     1.9065 H       
  62 H62           -1.8591    12.4467     1.5648 H       
  63 H63           -7.2109    12.0528     4.6374 H       
  64 H64           -9.4694    13.6482     3.3046 H       
  65 H65           -9.1937    13.3577     5.0536 H       
  66 H66           -8.3060    15.6423     3.7110 H       
  67 H67           -7.5219    14.9912     5.1820 H       
  68 H68           -5.6741    14.4215     3.9558 H       
  69 H69           -6.4416    15.1056     2.4948 H       
  70 H70           -9.6642     8.1040     4.7720 H       
  71 H71           -9.3846     8.9265     2.4146 H       
  72 H72          -11.8970     9.2706     1.8242 H       
  73 H73           -9.5492    10.7504     4.6892 H       
  74 H74          -11.1190     9.9469     5.5693 H       
  75 H75          -12.4157     9.3934     4.4828 H       
  76 H76          -11.8887     8.3643     5.8361 H       
  77 H77          -10.3972     6.7302     2.8423 H       
  78 H78          -11.4672     6.4858     4.2437 H       
  79 H79          -11.9942     7.5149     2.8903 H       
@<TRIPOS>BOND
   1    1    2 ar
   2    1    7 1
   3    1    6 ar
   4    2    3 ar
   5    2   41 1
   6    3    4 ar
   7    3   42 1
   8    4    5 ar
   9    4    8 1
  10    5    6 ar
  11    5    9 1
  12    6   43 1
  13    7   44 1
  14    8   45 1
  15    9   10 1
  16    9   19 2
  17   10   11 1
  18   10   46 1
  19   10   47 1
  20   11   12 1
  21   11   48 1
  22   11   49 1
  23   12   13 ar
  24   12   17 ar
  25   13   14 ar
  26   13   50 1
  27   14   15 ar
  28   14   51 1
  29   15   16 ar
  30   15   18 1
  31   16   17 ar
  32   16   52 1
  33   17   53 1
  34   18   22 1
  35   20   25 1
  36   20   26 1
  37   20   21 1
  38   20   54 1
  39   21   23 1
  40   21   22 1
  41   21   55 1
  42   22   24 2
  43   23   28 1
  44   23   56 1
  45   25   57 1
  46   25   58 1
  47   25   59 1
  48   26   60 1
  49   26   61 1
  50   26   62 1
  51   27   33 2
  52   27   37 am
  53   27   29 1
  54   28   32 1
  55   28   29 1
  56   29   30 1
  57   29   63 1
  58   30   31 1
  59   30   64 1
  60   30   65 1
  61   31   32 1
  62   31   66 1
  63   31   67 1
  64   32   68 1
  65   32   69 1
  66   34   35 1
  67   34   39 1
  68   34   40 1
  69   34   70 1
  70   35   37 1
  71   35   36 1
  72   35   71 1
  73   36   38 2
  74   36   72 1
  75   37   73 1
  76   39   74 1
  77   39   75 1
  78   39   76 1
  79   40   77 1
  80   40   78 1
  81   40   79 1

#	End of record

