#	Name: ASD06590021
#	Creating user name:	WinNT
#	Creation time:	15. 06. 2019 21:06

#	Modifying user name:	WinNT
#	Modification time:	15. 06. 2019 21:06

#	Program:	/corina/corina34_cracker 3.40 0067  02.08.2006

@<TRIPOS>MOLECULE
ASD06590021
 313  313    0    0    0
SMALL
NO_CHARGES


@<TRIPOS>ATOM
   1 C1            -3.1629    -5.2683    -6.5364 C.2     
   2 O2            -3.6319    -5.6671    -7.5814 O.2     
   3 N3            -1.3307    -6.8186    -6.9164 N.3     
   4 C4            -1.7517    -5.6348    -6.1553 C.3     
   5 C5            -0.8176    -4.4655    -6.4731 C.3     
   6 C6             0.5919    -4.7882    -5.9728 C.3     
   7 C7             1.5260    -3.6188    -6.2906 C.3     
   8 C8             2.9354    -3.9415    -5.7904 C.3     
   9 N9             3.8298    -2.8218    -6.0946 N.am    
  10 C10           -5.6562    -2.8451    -5.4075 C.2     
  11 O11           -4.8640    -2.2852    -4.6796 O.2     
  12 N12           -3.9019    -4.4928    -5.7186 N.am    
  13 C13           -5.2717    -4.1315    -6.0919 C.3     
  14 C14           -6.2285    -5.2446    -5.6600 C.3     
  15 C15           -5.9170    -6.5189    -6.4476 C.3     
  16 C16           -6.7884    -7.6647    -5.9292 C.3     
  17 C17           -6.2103    -6.2860    -7.9311 C.3     
  18 C18           -8.7531    -1.0011    -4.7974 C.2     
  19 O19           -9.4414    -1.9098    -5.2115 O.2     
  20 N20           -6.8804    -2.3168    -5.6043 N.am    
  21 C21           -7.2542    -1.0663    -4.9390 C.3     
  22 C22           -6.7687     0.1204    -5.7739 C.3     
  23 C23           -5.2392     0.1244    -5.8135 C.3     
  24 C24           -4.7538     1.3111    -6.6484 C.3     
  25 N25           -3.2893     1.3150    -6.6863 N.pl3   
  26 C26           -2.6222     2.2952    -7.3823 C.2     
  27 N27           -3.2928     3.2211    -8.0084 N.2     
  28 N28           -1.2479     2.2988    -7.4178 N.pl3   
  29 C29          -11.2197     1.5706    -3.9820 C.2     
  30 O30          -10.3932     2.4570    -4.0277 O.2     
  31 N31           -9.3287     0.0670    -4.2106 N.am    
  32 C32          -10.7859     0.1303    -4.0730 C.3     
  33 C33          -11.2110    -0.6115    -2.8041 C.3     
  34 C34          -10.8823    -2.0988    -2.9486 C.3     
  35 C35          -11.3011    -2.8294    -1.6988 C.2     
  36 O36          -11.8101    -2.2228    -0.7862 O.2     
  37 O37          -11.1085    -4.1541    -1.5994 O.3     
  38 C38          -14.2645     3.3570    -3.0328 C.2     
  39 O39          -14.7980     2.3461    -2.6272 O.2     
  40 N40          -12.5263     1.8738    -3.8499 N.am    
  41 C41          -12.9481     3.2740    -3.7615 C.3     
  42 C42          -13.1080     3.8484    -5.1705 C.3     
  43 C43          -11.8076     3.6511    -5.9523 C.3     
  44 O44          -14.1742     3.1741    -5.8416 O.3     
  45 C45          -17.2306     4.5078    -3.2958 C.2     
  46 O46          -16.9010     4.3750    -4.4554 O.2     
  47 N47          -14.8491     4.5546    -2.8317 N.am    
  48 C48          -16.1795     4.6273    -2.2226 C.3     
  49 C49          -16.3375     5.9671    -1.5009 C.3     
  50 C50          -15.3679     6.0348    -0.3492 C.2     
  51 O51          -14.5690     5.1389    -0.1757 O.2     
  52 N52          -15.3886     7.0908     0.4879 N.am    
  53 C53          -20.8305     5.0929    -3.5439 C.2     
  54 O54          -20.8785     5.6099    -2.4478 O.2     
  55 N55          -18.5371     4.5485    -2.9671 N.am    
  56 C56          -19.5589     4.4323    -4.0104 C.3     
  57 C57          -19.8281     2.9539    -4.2982 C.3     
  58 C58          -24.2018     5.6319    -4.9645 C.2     
  59 O59          -23.9437     5.0660    -6.0056 O.2     
  60 N60          -21.9145     5.1092    -4.3447 N.am    
  61 C61          -23.1506     5.7514    -3.8912 C.3     
  62 C62          -27.4525     7.1530    -5.6587 C.2     
  63 O63          -27.3257     7.9649    -4.7668 O.2     
  64 N64          -25.4286     6.1539    -4.7673 N.am    
  65 C65          -26.4504     6.0377    -5.8106 C.3     
  66 C66          -27.1631     4.6903    -5.6787 C.3     
  67 C67          -26.1708     3.5592    -5.9562 C.3     
  68 C68          -26.8835     2.2118    -5.8243 C.3     
  69 N69          -25.9333     1.1288    -6.0900 N.pl3   
  70 C70          -26.3487    -0.1804    -6.0295 C.2     
  71 N71          -25.5034    -1.1440    -6.2659 N.2     
  72 N72          -27.6558    -0.4732    -5.7196 N.pl3   
  73 C73          -30.7785     7.9124    -6.9720 C.2     
  74 O74          -30.8905     6.8155    -7.4772 O.2     
  75 N75          -28.4898     7.2481    -6.5140 N.am    
  76 C76          -29.4639     8.3322    -6.3664 C.3     
  77 C77          -28.9485     9.5821    -7.0827 C.3     
  78 O78          -28.8740     9.3295    -8.4872 O.3     
  79 C79          -33.2290     8.5373    -8.9227 C.2     
  80 O80          -32.2936     9.0273    -9.5192 O.2     
  81 N81          -31.8295     8.7557    -6.9522 N.am    
  82 C82          -33.1376     8.3075    -7.4361 C.3     
  83 C83          -34.2410     9.0973    -6.7292 C.3     
  84 C84          -34.2361     8.7621    -5.2599 C.2     
  85 O85          -33.3853     8.0319    -4.8097 O.2     
  86 O86          -35.1771     9.2747    -4.4515 O.3     
  87 C87          -35.8857     8.5592   -11.4335 C.2     
  88 O88          -36.7568     8.4785   -10.5935 O.2     
  89 N89          -34.3502     8.1983    -9.5893 N.am    
  90 C90          -34.4390     8.4217   -11.0344 C.3     
  91 C91          -33.8168     7.2351   -11.7731 C.3     
  92 C92          -32.3861     7.0184   -11.2761 C.3     
  93 O93          -34.5907     6.0600   -11.5240 O.3     
  94 C94          -37.7775     8.5251   -14.5613 C.2     
  95 O95          -36.8116     8.1768   -15.2067 O.2     
  96 N96          -36.2116     8.7718   -12.7239 N.am    
  97 C97          -37.6179     8.9054   -13.1118 C.3     
  98 C98          -38.0665    10.3546   -12.9124 C.3     
  99 C99          -38.0228    10.7016   -11.4229 C.3     
 100 C100         -38.4713    12.1507   -11.2235 C.3     
 101 N101         -38.4295    12.4830    -9.7973 N.pl3   
 102 C102         -38.7921    13.7395    -9.3733 C.2     
 103 N103         -39.1732    14.6351   -10.2402 N.2     
 104 N104         -38.7528    14.0513    -8.0349 N.pl3   
 105 C105         -40.3664     8.8854   -17.1168 C.2     
 106 O106         -41.0385     9.6096   -16.4135 O.2     
 107 N107         -38.9936     8.5722   -15.1404 N.am    
 108 C108         -39.1487     8.2024   -16.5494 C.3     
 109 C109         -39.3150     6.6858   -16.6635 C.3     
 110 C110         -38.0294     5.9958   -16.2031 C.3     
 111 C111         -38.1932     4.5019   -16.3154 C.2     
 112 O112         -39.2355     4.0351   -16.7234 O.2     
 113 N113         -37.1813     3.6846   -15.9624 N.am    
 114 C114         -42.4131     8.5622   -20.1284 C.2     
 115 O115         -41.8508     7.5430   -20.4687 O.2     
 116 N116         -40.7086     8.6913   -18.4059 N.am    
 117 C117         -41.8923     9.3552   -18.9575 C.3     
 118 C118         -41.5171    10.7639   -19.4219 C.3     
 119 C119         -41.1066    11.6070   -18.2130 C.3     
 120 C120         -40.7370    12.9945   -18.6704 C.2     
 121 O121         -40.7961    13.2808   -19.8475 O.2     
 122 N122         -40.3408    13.9173   -17.7715 N.am    
 123 C123         -43.2665     8.6154   -23.1841 C.2     
 124 O124         -42.4025     9.4581   -23.1285 O.2     
 125 N125         -43.5037     8.9858   -20.7975 N.am    
 126 C126         -44.0099     8.2150   -21.9358 C.3     
 127 C127         -45.5027     8.4964   -22.1189 C.3     
 128 C128         -46.2609     7.9840   -20.9216 C.ar    
 129 C129         -46.4742     8.8108   -19.8341 C.ar    
 130 C130         -47.1686     8.3434   -18.7352 C.ar    
 131 C131         -47.6525     7.0432   -18.7235 C.ar    
 132 O132         -48.3364     6.5812   -17.6438 O.3     
 133 C133         -47.4376     6.2157   -19.8161 C.ar    
 134 C134         -46.7471     6.6896   -20.9147 C.ar    
 135 O135         -43.5642     8.0357   -24.3576 O.3     
 136 C136           5.1298    -2.8833    -5.7441 C.2     
 137 O137           5.5591    -3.8655    -5.1768 O.2     
 138 C138          22.4547     4.1951    -4.7797 C.3     
 139 C139          21.5206     3.0258    -4.4619 C.3     
 140 C140          20.1112     3.3485    -4.9622 C.3     
 141 C141          19.1771     2.1791    -4.6444 C.3     
 142 C142          17.7676     2.5018    -5.1447 C.3     
 143 C143          16.8335     1.3325    -4.8269 C.3     
 144 C144          15.4241     1.6551    -5.3271 C.3     
 145 C145          14.4900     0.4858    -5.0094 C.3     
 146 C146          13.0805     0.8085    -5.5096 C.3     
 147 C147          12.1464    -0.3609    -5.1919 C.3     
 148 C148          10.7370    -0.0382    -5.6921 C.3     
 149 C149           9.8029    -1.2075    -5.3744 C.3     
 150 C150           8.3934    -0.8849    -5.8746 C.3     
 151 C151           7.4593    -2.0542    -5.5568 C.3     
 152 C152           6.0499    -1.7315    -6.0571 C.3     
 153 H153          -1.8920    -7.6218    -6.6756 H       
 154 H154          -1.3618    -6.6402    -7.9091 H       
 155 H155          -1.7088    -5.8546    -5.0886 H       
 156 H156          -0.7924    -4.3031    -7.5506 H       
 157 H157          -1.1814    -3.5650    -5.9783 H       
 158 H158           0.5666    -4.9506    -4.8953 H       
 159 H159           0.9557    -5.6887    -6.4676 H       
 160 H160           1.5512    -3.4564    -7.3681 H       
 161 H161           1.1621    -2.7183    -5.7958 H       
 162 H162           2.9102    -4.1039    -4.7128 H       
 163 H163           3.2993    -4.8420    -6.2851 H       
 164 H164           3.4865    -2.0363    -6.5484 H       
 165 H165          -3.5269    -4.1738    -4.8828 H       
 166 H166          -5.3312    -4.0001    -7.1723 H       
 167 H167          -6.1048    -5.4369    -4.5943 H       
 168 H168          -7.2556    -4.9377    -5.8570 H       
 169 H169          -4.8654    -6.7762    -6.3211 H       
 170 H170          -7.8400    -7.4073    -6.0556 H       
 171 H171          -6.5665    -8.5724    -6.4902 H       
 172 H172          -6.5795    -7.8305    -4.8723 H       
 173 H173          -7.2619    -6.0286    -8.0575 H       
 174 H174          -5.5895    -5.4697    -8.3004 H       
 175 H175          -5.9884    -7.1938    -8.4921 H       
 176 H176          -7.5140    -2.7646    -6.1865 H       
 177 H177          -6.7939    -1.0284    -3.9517 H       
 178 H178          -7.1582     0.0345    -6.7883 H       
 179 H179          -7.1230     1.0489    -5.3261 H       
 180 H180          -4.8498     0.2103    -4.7991 H       
 181 H181          -4.8849    -0.8040    -6.2613 H       
 182 H182          -5.1433     1.2253    -7.6628 H       
 183 H183          -5.1081     2.2396    -6.2005 H       
 184 H184          -2.7903     0.6260    -6.2203 H       
 185 H185          -2.8222     3.9126    -8.4994 H       
 186 H186          -0.7488     1.6098    -6.9519 H       
 187 H187          -0.7772     2.9904    -7.9089 H       
 188 H188          -8.7783     0.7937    -3.8795 H       
 189 H189         -11.2534    -0.3359    -4.9403 H       
 190 H190         -10.6753    -0.2025    -1.9475 H       
 191 H191         -12.2837    -0.4893    -2.6540 H       
 192 H192         -11.4180    -2.5077    -3.8052 H       
 193 H193          -9.8097    -2.2209    -3.0987 H       
 194 H194         -11.3933    -4.5788    -0.7787 H       
 195 H195         -13.1874     1.1649    -3.8134 H       
 196 H196         -12.1957     3.8465    -3.2189 H       
 197 H197         -13.3349     4.9125    -5.1055 H       
 198 H198         -11.5807     2.5870    -6.0173 H       
 199 H199         -11.9216     4.0604    -6.9561 H       
 200 H200         -10.9943     4.1655    -5.4404 H       
 201 H201         -14.3326     3.4876    -6.7426 H       
 202 H202         -14.3890     5.3684    -3.0904 H       
 203 H203         -16.2965     3.8133    -1.5072 H       
 204 H204         -16.1326     6.7809    -2.1966 H       
 205 H205         -17.3562     6.0590    -1.1242 H       
 206 H206         -16.0276     7.8073     0.3491 H       
 207 H207         -14.7646     7.1344     1.2293 H       
 208 H208         -18.8007     4.6547    -2.0396 H       
 209 H209         -19.2077     4.9212    -4.9191 H       
 210 H210         -20.5884     2.8674    -5.0745 H       
 211 H211         -18.9084     2.4761    -4.6356 H       
 212 H212         -20.1794     2.4650    -3.3895 H       
 213 H213         -21.8761     4.6957    -5.2213 H       
 214 H214         -22.9588     6.8047    -3.6862 H       
 215 H215         -23.5019     5.2625    -2.9826 H       
 216 H216         -25.6350     6.6065    -3.9345 H       
 217 H217         -25.9782     6.1046    -6.7907 H       
 218 H218         -27.5594     4.5862    -4.6686 H       
 219 H219         -27.9814     4.6401    -6.3970 H       
 220 H220         -25.7745     3.6633    -6.9663 H       
 221 H221         -25.3525     3.6093    -5.2379 H       
 222 H222         -27.2798     2.1077    -4.8143 H       
 223 H223         -27.7017     2.1616    -6.5426 H       
 224 H224         -25.0112     1.3354    -6.3087 H       
 225 H225         -25.7965    -2.0676    -6.2232 H       
 226 H226         -28.2849     0.2438    -5.5436 H       
 227 H227         -27.9489    -1.3969    -5.6768 H       
 228 H228         -28.5912     6.5987    -7.2274 H       
 229 H229         -29.6052     8.5522    -5.3082 H       
 230 H230         -29.6293    10.4132    -6.8986 H       
 231 H231         -27.9573     9.8341    -6.7057 H       
 232 H232         -28.5541    10.0806    -9.0054 H       
 233 H233         -31.7199     9.6596    -6.6175 H       
 234 H234         -33.2587     7.2451    -7.2246 H       
 235 H235         -34.0637    10.1649    -6.8589 H       
 236 H236         -35.2078     8.8347    -7.1585 H       
 237 H237         -35.1329     9.0311    -3.5167 H       
 238 H238         -35.0984     7.8064    -9.1122 H       
 239 H239         -33.9021     9.3339   -11.2948 H       
 240 H240         -33.8024     7.4406   -12.8435 H       
 241 H241         -31.7957     7.9148   -11.4662 H       
 242 H242         -32.4005     6.8130   -10.2058 H       
 243 H243         -31.9427     6.1731   -11.8024 H       
 244 H244         -34.2535     5.2667   -11.9623 H       
 245 H245         -35.5149     8.8364   -13.3957 H       
 246 H246         -38.2293     8.2476   -12.4942 H       
 247 H247         -37.3994    11.0201   -13.4603 H       
 248 H248         -39.0843    10.4742   -13.2836 H       
 249 H249         -38.6899    10.0361   -10.8751 H       
 250 H250         -37.0049    10.5820   -11.0517 H       
 251 H251         -37.8042    12.8162   -11.7714 H       
 252 H252         -39.4892    12.2703   -11.5947 H       
 253 H253         -38.1459    11.8165    -9.1521 H       
 254 H254         -39.4290    15.5217    -9.9411 H       
 255 H255         -38.4692    13.3848    -7.3897 H       
 256 H256         -39.0087    14.9379    -7.7357 H       
 257 H257         -39.7661     8.8508   -14.6242 H       
 258 H258         -38.2650     8.5139   -17.1062 H       
 259 H259         -40.1455     6.3631   -16.0355 H       
 260 H260         -39.5189     6.4196   -17.7006 H       
 261 H261         -37.1989     6.3184   -16.8311 H       
 262 H262         -37.8255     6.2620   -15.1660 H       
 263 H263         -36.3476     4.0579   -15.6360 H       
 264 H264         -37.2867     2.7231   -16.0347 H       
 265 H265         -40.1711     8.1121   -18.9685 H       
 266 H266         -42.6638     9.4190   -18.1901 H       
 267 H267         -40.6850    10.7055   -20.1236 H       
 268 H268         -42.3743    11.2251   -19.9124 H       
 269 H269         -41.9387    11.6654   -17.5113 H       
 270 H270         -40.2494    11.1457   -17.7225 H       
 271 H271         -40.2936    13.6883   -16.8301 H       
 272 H272         -40.1029    14.8103   -18.0660 H       
 273 H273         -43.9534     9.8010   -20.5254 H       
 274 H274         -43.8609     7.1514   -21.7495 H       
 275 H275         -45.6606     9.5704   -22.2166 H       
 276 H276         -45.8597     7.9934   -23.0176 H       
 277 H277         -46.0973     9.8229   -19.8437 H       
 278 H278         -47.3344     8.9894   -17.8857 H       
 279 H279         -49.2913     6.7259   -17.6916 H       
 280 H280         -47.8130     5.2031   -19.8092 H       
 281 H281         -46.5833     6.0472   -21.7673 H       
 282 H282         -43.0605     8.3253   -25.1306 H       
 283 H283          22.4800     4.3576    -5.8572 H       
 284 H284          22.0909     5.0956    -4.2849 H       
 285 H285          23.4589     3.9653    -4.4233 H       
 286 H286          21.8845     2.1253    -4.9567 H       
 287 H287          21.4954     2.8634    -3.3844 H       
 288 H288          19.7473     4.2490    -4.4674 H       
 289 H289          20.1364     3.5109    -6.0397 H       
 290 H290          19.5409     1.2786    -5.1392 H       
 291 H291          19.1519     2.0167    -3.5669 H       
 292 H292          17.4038     3.4023    -4.6499 H       
 293 H293          17.7929     2.6642    -6.2222 H       
 294 H294          17.1974     0.4320    -5.3217 H       
 295 H295          16.8083     1.1700    -3.7494 H       
 296 H296          15.0602     2.5556    -4.8324 H       
 297 H297          15.4493     1.8176    -6.4047 H       
 298 H298          14.8538    -0.4147    -5.5041 H       
 299 H299          14.4647     0.3234    -3.9318 H       
 300 H300          12.7167     1.7090    -5.0149 H       
 301 H301          13.1057     0.9709    -6.5872 H       
 302 H302          12.5103    -1.2614    -5.6866 H       
 303 H303          12.1212    -0.5233    -4.1143 H       
 304 H304          10.3731     0.8623    -5.1974 H       
 305 H305          10.7622     0.1242    -6.7697 H       
 306 H306          10.1667    -2.1080    -5.8691 H       
 307 H307           9.7776    -1.3700    -4.2968 H       
 308 H308           8.0296     0.0157    -5.3798 H       
 309 H309           8.4186    -0.7224    -6.9521 H       
 310 H310           7.8232    -2.9547    -6.0516 H       
 311 H311           7.4341    -2.2166    -4.4793 H       
 312 H312           6.0751    -1.5691    -7.1346 H       
 313 H313           5.6860    -0.8310    -5.5623 H       
@<TRIPOS>BOND
   1    1    2 2
   2    1    4 1
   3    1   12 am
   4    3    4 1
   5    3  153 1
   6    3  154 1
   7    4    5 1
   8    4  155 1
   9    5    6 1
  10    5  156 1
  11    5  157 1
  12    6    7 1
  13    6  158 1
  14    6  159 1
  15    7    8 1
  16    7  160 1
  17    7  161 1
  18    8    9 1
  19    8  162 1
  20    8  163 1
  21    9  136 am
  22    9  164 1
  23   10   11 2
  24   10   13 1
  25   10   20 am
  26   12   13 1
  27   12  165 1
  28   13   14 1
  29   13  166 1
  30   14   15 1
  31   14  167 1
  32   14  168 1
  33   15   16 1
  34   15   17 1
  35   15  169 1
  36   16  170 1
  37   16  171 1
  38   16  172 1
  39   17  173 1
  40   17  174 1
  41   17  175 1
  42   18   19 2
  43   18   21 1
  44   18   31 am
  45   20   21 1
  46   20  176 1
  47   21   22 1
  48   21  177 1
  49   22   23 1
  50   22  178 1
  51   22  179 1
  52   23   24 1
  53   23  180 1
  54   23  181 1
  55   24   25 1
  56   24  182 1
  57   24  183 1
  58   25   26 1
  59   25  184 1
  60   26   27 2
  61   26   28 1
  62   27  185 1
  63   28  186 1
  64   28  187 1
  65   29   30 2
  66   29   32 1
  67   29   40 am
  68   31   32 1
  69   31  188 1
  70   32   33 1
  71   32  189 1
  72   33   34 1
  73   33  190 1
  74   33  191 1
  75   34   35 1
  76   34  192 1
  77   34  193 1
  78   35   36 2
  79   35   37 1
  80   37  194 1
  81   38   39 2
  82   38   41 1
  83   38   47 am
  84   40   41 1
  85   40  195 1
  86   41   42 1
  87   41  196 1
  88   42   43 1
  89   42   44 1
  90   42  197 1
  91   43  198 1
  92   43  199 1
  93   43  200 1
  94   44  201 1
  95   45   46 2
  96   45   48 1
  97   45   55 am
  98   47   48 1
  99   47  202 1
 100   48   49 1
 101   48  203 1
 102   49   50 1
 103   49  204 1
 104   49  205 1
 105   50   51 2
 106   50   52 am
 107   52  206 1
 108   52  207 1
 109   53   54 2
 110   53   56 1
 111   53   60 am
 112   55   56 1
 113   55  208 1
 114   56   57 1
 115   56  209 1
 116   57  210 1
 117   57  211 1
 118   57  212 1
 119   58   59 2
 120   58   61 1
 121   58   64 am
 122   60   61 1
 123   60  213 1
 124   61  214 1
 125   61  215 1
 126   62   63 2
 127   62   65 1
 128   62   75 am
 129   64   65 1
 130   64  216 1
 131   65   66 1
 132   65  217 1
 133   66   67 1
 134   66  218 1
 135   66  219 1
 136   67   68 1
 137   67  220 1
 138   67  221 1
 139   68   69 1
 140   68  222 1
 141   68  223 1
 142   69   70 1
 143   69  224 1
 144   70   71 2
 145   70   72 1
 146   71  225 1
 147   72  226 1
 148   72  227 1
 149   73   74 2
 150   73   76 1
 151   73   81 am
 152   75   76 1
 153   75  228 1
 154   76   77 1
 155   76  229 1
 156   77   78 1
 157   77  230 1
 158   77  231 1
 159   78  232 1
 160   79   80 2
 161   79   82 1
 162   79   89 am
 163   81   82 1
 164   81  233 1
 165   82   83 1
 166   82  234 1
 167   83   84 1
 168   83  235 1
 169   83  236 1
 170   84   85 2
 171   84   86 1
 172   86  237 1
 173   87   88 2
 174   87   90 1
 175   87   96 am
 176   89   90 1
 177   89  238 1
 178   90   91 1
 179   90  239 1
 180   91   92 1
 181   91   93 1
 182   91  240 1
 183   92  241 1
 184   92  242 1
 185   92  243 1
 186   93  244 1
 187   94   95 2
 188   94   97 1
 189   94  107 am
 190   96   97 1
 191   96  245 1
 192   97   98 1
 193   97  246 1
 194   98   99 1
 195   98  247 1
 196   98  248 1
 197   99  100 1
 198   99  249 1
 199   99  250 1
 200  100  101 1
 201  100  251 1
 202  100  252 1
 203  101  102 1
 204  101  253 1
 205  102  103 2
 206  102  104 1
 207  103  254 1
 208  104  255 1
 209  104  256 1
 210  105  106 2
 211  105  108 1
 212  105  116 am
 213  107  108 1
 214  107  257 1
 215  108  109 1
 216  108  258 1
 217  109  110 1
 218  109  259 1
 219  109  260 1
 220  110  111 1
 221  110  261 1
 222  110  262 1
 223  111  112 2
 224  111  113 am
 225  113  263 1
 226  113  264 1
 227  114  115 2
 228  114  117 1
 229  114  125 am
 230  116  117 1
 231  116  265 1
 232  117  118 1
 233  117  266 1
 234  118  119 1
 235  118  267 1
 236  118  268 1
 237  119  120 1
 238  119  269 1
 239  119  270 1
 240  120  121 2
 241  120  122 am
 242  122  271 1
 243  122  272 1
 244  123  124 2
 245  123  126 1
 246  123  135 1
 247  125  126 1
 248  125  273 1
 249  126  127 1
 250  126  274 1
 251  127  128 1
 252  127  275 1
 253  127  276 1
 254  128  129 ar
 255  128  134 ar
 256  129  130 ar
 257  129  277 1
 258  130  131 ar
 259  130  278 1
 260  131  132 1
 261  131  133 ar
 262  132  279 1
 263  133  134 ar
 264  133  280 1
 265  134  281 1
 266  135  282 1
 267  136  137 2
 268  136  152 1
 269  138  139 1
 270  138  283 1
 271  138  284 1
 272  138  285 1
 273  139  140 1
 274  139  286 1
 275  139  287 1
 276  140  141 1
 277  140  288 1
 278  140  289 1
 279  141  142 1
 280  141  290 1
 281  141  291 1
 282  142  143 1
 283  142  292 1
 284  142  293 1
 285  143  144 1
 286  143  294 1
 287  143  295 1
 288  144  145 1
 289  144  296 1
 290  144  297 1
 291  145  146 1
 292  145  298 1
 293  145  299 1
 294  146  147 1
 295  146  300 1
 296  146  301 1
 297  147  148 1
 298  147  302 1
 299  147  303 1
 300  148  149 1
 301  148  304 1
 302  148  305 1
 303  149  150 1
 304  149  306 1
 305  149  307 1
 306  150  151 1
 307  150  308 1
 308  150  309 1
 309  151  152 1
 310  151  310 1
 311  151  311 1
 312  152  312 1
 313  152  313 1

#	End of record

