#	Name: ASD03430481
#	Creating user name:	WinNT
#	Creation time:	15. 06. 2019 20:41

#	Modifying user name:	WinNT
#	Modification time:	15. 06. 2019 20:41

#	Program:	/corina/corina34_cracker 3.40 0067  02.08.2006

@<TRIPOS>MOLECULE
ASD03430481
  46   47    0    0    0
SMALL
NO_CHARGES


@<TRIPOS>ATOM
   1 C1            -0.0167     1.3781     0.0096 C.ar    
   2 C2             0.0021    -0.0041     0.0020 C.ar    
   3 C3             1.2084    -0.6789    -0.0132 C.ar    
   4 C4             2.3960     0.0285    -0.0212 C.ar    
   5 C5             2.3773     1.4107    -0.0145 C.ar    
   6 C6             1.1709     2.0855     0.0021 C.ar    
   7 S7            -1.5544     2.2383     0.0216 S.o2    
   8 O8            -1.2971     3.5278    -0.5171 O.2     
   9 O9            -2.5173     1.3465    -0.5231 O.2     
  10 O10           -1.9407     2.4503     1.4784 O.3     
  11 C11            3.7112    -0.7071    -0.0368 C.3     
  12 C12           -1.1905     3.4737     2.1356 C.3     
  13 C13           -1.6607     3.5990     3.5862 C.3     
  14 C14           -1.5643     2.2353     4.2731 C.3     
  15 O15           -3.0165     4.0496     3.6102 O.3     
  16 C16           -3.3512     4.8243     4.7634 C.3     
  17 O17           -2.7874     6.1315     4.6393 O.3     
  18 C18           -3.4773     6.9768     3.7165 C.3     
  19 C19           -2.8008     8.3224     3.6655 C.ar    
  20 C20           -1.7838     8.5508     2.7574 C.ar    
  21 C21           -1.1632     9.7851     2.7106 C.ar    
  22 C22           -1.5599    10.7912     3.5716 C.ar    
  23 C23           -2.5774    10.5632     4.4791 C.ar    
  24 C24           -3.2010     9.3302     4.5229 C.ar    
  25 H25           -0.9258    -0.5567     0.0083 H       
  26 H26            1.2231    -1.7588    -0.0184 H       
  27 H27            3.3051     1.9634    -0.0205 H       
  28 H28            1.1563     3.1654     0.0077 H       
  29 H29            4.0186    -0.8800    -1.0681 H       
  30 H30            4.4676    -0.1100     0.4726 H       
  31 H31            3.5986    -1.6635     0.4740 H       
  32 H32           -0.1315     3.2161     2.1179 H       
  33 H33           -1.3422     4.4226     1.6212 H       
  34 H34           -1.0301     4.3160     4.1119 H       
  35 H35           -0.5300     1.8915     4.2548 H       
  36 H36           -1.8992     2.3245     5.3065 H       
  37 H37           -2.1948     1.5182     3.7474 H       
  38 H38           -4.4352     4.9025     4.8465 H       
  39 H39           -2.9525     4.3398     5.6548 H       
  40 H40           -3.4598     6.5235     2.7254 H       
  41 H41           -4.5105     7.1016     4.0408 H       
  42 H42           -1.4739     7.7647     2.0848 H       
  43 H43           -0.3682     9.9632     2.0017 H       
  44 H44           -1.0745    11.7553     3.5355 H       
  45 H45           -2.8871    11.3491     5.1519 H       
  46 H46           -3.9985     9.1532     5.2293 H       
@<TRIPOS>BOND
   1    1    2 ar
   2    1    6 ar
   3    1    7 1
   4    2    3 ar
   5    2   25 1
   6    3    4 ar
   7    3   26 1
   8    4    5 ar
   9    4   11 1
  10    5    6 ar
  11    5   27 1
  12    6   28 1
  13    7    8 2
  14    7    9 2
  15    7   10 1
  16   10   12 1
  17   11   29 1
  18   11   30 1
  19   11   31 1
  20   12   13 1
  21   12   32 1
  22   12   33 1
  23   13   14 1
  24   13   15 1
  25   13   34 1
  26   14   35 1
  27   14   36 1
  28   14   37 1
  29   15   16 1
  30   16   17 1
  31   16   38 1
  32   16   39 1
  33   17   18 1
  34   18   19 1
  35   18   40 1
  36   18   41 1
  37   19   20 ar
  38   19   24 ar
  39   20   21 ar
  40   20   42 1
  41   21   22 ar
  42   21   43 1
  43   22   23 ar
  44   22   44 1
  45   23   24 ar
  46   23   45 1
  47   24   46 1

#	End of record

