#	Name: ASD01914932
#	Creating user name:	WinNT
#	Creation time:	15. 06. 2019 20:04

#	Modifying user name:	WinNT
#	Modification time:	15. 06. 2019 20:04

#	Program:	/corina/corina34_cracker 3.40 0067  02.08.2006

@<TRIPOS>MOLECULE
ASD01914932
  51   54    0    0    0
SMALL
NO_CHARGES


@<TRIPOS>ATOM
   1 C1            -0.0158     1.3120     0.0093 C.2     
   2 N2             0.0021    -0.0041     0.0020 N.2     
   3 C3             1.3183     1.7636    -0.0011 C.2     
   4 C4             2.1227     0.6785    -0.0146 C.2     
   5 N5             1.3391    -0.4213    -0.0130 N.pl3   
   6 C6            -1.2277     2.1688     0.0199 C.ar    
   7 C7            -1.1054     3.5534    -0.0788 C.ar    
   8 C8            -2.2345     4.3461    -0.0690 C.ar    
   9 C9            -3.4888     3.7673     0.0393 C.ar    
  10 C10           -3.6149     2.3913     0.1376 C.ar    
  11 C11           -2.4910     1.5906     0.1228 C.ar    
  12 C12            3.6296     0.6927    -0.0293 C.3     
  13 C13            4.1525     0.8152     1.4033 C.3     
  14 C14            1.8063    -1.8097    -0.0245 C.3     
  15 C15            1.9797    -2.2931     1.3923 C.2     
  16 N16            2.4045    -3.5502     1.6282 N.am    
  17 O17            1.7369    -1.5510     2.3203 O.2     
  18 C18            2.7064    -4.4719     0.5193 C.3     
  19 C19            2.1171    -5.8175     0.8753 C.2     
  20 C20            1.6220    -6.1483     2.0826 C.2     
  21 C21            1.5867    -5.1813     3.2561 C.3     
  22 C22            2.5878    -4.0449     3.0010 C.3     
  23 C23           -4.9817     1.7675     0.2551 C.3     
  24 F24           -4.5919     4.5472     0.0494 F       
  25 S25            1.9603    -7.2023    -0.1964 S.3     
  26 C26            1.2519    -8.1092     1.0674 C.2     
  27 N27            1.1721    -7.3946     2.1343 N.2     
  28 C28            0.7875    -9.5379     0.9490 C.3     
  29 H29            1.6408     2.7944     0.0011 H       
  30 H30           -0.1280     4.0053    -0.1625 H       
  31 H31           -2.1406     5.4193    -0.1454 H       
  32 H32           -2.5901     0.5179     0.1995 H       
  33 H33            3.9973    -0.2327    -0.4724 H       
  34 H34            3.9792     1.5412    -0.6175 H       
  35 H35            3.7847     1.7407     1.8464 H       
  36 H36            3.8029    -0.0332     1.9915 H       
  37 H37            5.2424     0.8255     1.3926 H       
  38 H38            1.0740    -2.4353    -0.5348 H       
  39 H39            2.7609    -1.8675    -0.5475 H       
  40 H40            2.2563    -4.1025    -0.4022 H       
  41 H41            3.7856    -4.5613     0.3954 H       
  42 H42            0.5829    -4.7691     3.3585 H       
  43 H43            1.8606    -5.7078     4.1704 H       
  44 H44            3.6038    -4.4193     3.1265 H       
  45 H45            2.4070    -3.2347     3.7074 H       
  46 H46           -5.3682     1.5492    -0.7404 H       
  47 H47           -4.9111     0.8431     0.8282 H       
  48 H48           -5.6543     2.4591     0.7624 H       
  49 H49            0.9743    -9.8980    -0.0628 H       
  50 H50            1.3324   -10.1573     1.6614 H       
  51 H51           -0.2800    -9.5919     1.1625 H       
@<TRIPOS>BOND
   1    1    2 2
   2    1    3 1
   3    1    6 1
   4    2    5 1
   5    3    4 2
   6    3   29 1
   7    4    5 1
   8    4   12 1
   9    5   14 1
  10    6    7 ar
  11    6   11 ar
  12    7    8 ar
  13    7   30 1
  14    8    9 ar
  15    8   31 1
  16    9   10 ar
  17    9   24 1
  18   10   11 ar
  19   10   23 1
  20   11   32 1
  21   12   13 1
  22   12   33 1
  23   12   34 1
  24   13   35 1
  25   13   36 1
  26   13   37 1
  27   14   15 1
  28   14   38 1
  29   14   39 1
  30   15   16 am
  31   15   17 2
  32   16   18 1
  33   16   22 1
  34   18   19 1
  35   18   40 1
  36   18   41 1
  37   19   20 2
  38   19   25 1
  39   20   21 1
  40   20   27 1
  41   21   22 1
  42   21   42 1
  43   21   43 1
  44   22   44 1
  45   22   45 1
  46   23   46 1
  47   23   47 1
  48   23   48 1
  49   25   26 1
  50   26   27 2
  51   26   28 1
  52   28   49 1
  53   28   50 1
  54   28   51 1

#	End of record

