#	Name: ASD01881975
#	Creating user name:	WinNT
#	Creation time:	15. 06. 2019 19:43

#	Modifying user name:	WinNT
#	Modification time:	15. 06. 2019 19:43

#	Program:	/corina/corina34_cracker 3.40 0067  02.08.2006

@<TRIPOS>MOLECULE
ASD01881975
  27   28    0    0    0
SMALL
NO_CHARGES


@<TRIPOS>ATOM
   1 C1            -0.0161     1.3337     0.0094 C.2     
   2 N2             0.0021    -0.0041     0.0020 N.am    
   3 C3             1.2613    -0.4841    -0.0126 C.2     
   4 C4             2.1640     0.7337    -0.0147 C.3     
   5 N5             1.2200     1.8645     0.0004 N.am    
   6 O6            -1.0354     1.9955     0.0180 O.2     
   7 O7             1.6013    -1.6477    -0.0215 O.2     
   8 C8             1.5609     3.2893     0.0041 C.3     
   9 C9            -1.1986    -0.8435     0.0097 C.3     
  10 C10           -1.6247    -1.1237    -1.4083 C.ar    
  11 C11           -1.1342    -2.2334    -2.0708 C.ar    
  12 C12           -1.5251    -2.4911    -3.3713 C.ar    
  13 C13           -2.4073    -1.6383    -4.0099 C.ar    
  14 C14           -2.8979    -0.5279    -3.3466 C.ar    
  15 C15           -2.5105    -0.2740    -2.0444 C.ar    
  16 Br16          -2.9421    -1.9899    -5.7893 Br      
  17 H17            2.7924     0.7467     0.8759 H       
  18 H18            2.7753     0.7564    -0.9169 H       
  19 H19            0.6460     3.8817     0.0159 H       
  20 H20            2.1538     3.5187     0.8895 H       
  21 H21            2.1365     3.5274    -0.8904 H       
  22 H22           -0.9813    -1.7838     0.5163 H       
  23 H23           -2.0010    -0.3250     0.5345 H       
  24 H24           -0.4451    -2.8990    -1.5722 H       
  25 H25           -1.1416    -3.3579    -3.8889 H       
  26 H26           -3.5864     0.1384    -3.8450 H       
  27 H27           -2.8967     0.5906    -1.5250 H       
@<TRIPOS>BOND
   1    1    2 am
   2    1    5 am
   3    1    6 2
   4    2    3 am
   5    2    9 1
   6    3    4 1
   7    3    7 2
   8    4    5 1
   9    4   17 1
  10    4   18 1
  11    5    8 1
  12    8   19 1
  13    8   20 1
  14    8   21 1
  15    9   10 1
  16    9   22 1
  17    9   23 1
  18   10   11 ar
  19   10   15 ar
  20   11   12 ar
  21   11   24 1
  22   12   13 ar
  23   12   25 1
  24   13   14 ar
  25   13   16 1
  26   14   15 ar
  27   14   26 1
  28   15   27 1

#	End of record

