#	Name: ASD01883813
#	Creating user name:	WinNT
#	Creation time:	15. 06. 2019 19:47

#	Modifying user name:	WinNT
#	Modification time:	15. 06. 2019 19:47

#	Program:	/corina/corina34_cracker 3.40 0067  02.08.2006

@<TRIPOS>MOLECULE
ASD01883813
  55   59    0    0    0
SMALL
NO_CHARGES


@<TRIPOS>ATOM
   1 C1            -0.0168     1.3900     0.0097 C.ar    
   2 C2             0.0021    -0.0041     0.0020 C.ar    
   3 C3             1.2115    -0.6763    -0.0131 C.ar    
   4 C4             2.3974     0.0438    -0.0205 C.ar    
   5 C5             2.3879     1.4508    -0.0129 C.ar    
   6 C6             1.1392     2.1064     0.0025 C.ar    
   7 S7             4.0950    -0.4387    -0.0393 S.3     
   8 N8             4.7403     1.1264    -0.0371 N.am    
   9 C9             3.7355     2.0019    -0.0228 C.2     
  10 O10            3.9349     3.2046    -0.0186 O.2     
  11 O11           -1.1634    -0.7005     0.0098 O.3     
  12 C12           -2.3733     0.0598     0.0259 C.3     
  13 C13           -3.5546    -0.8760     0.0326 C.ar    
  14 C14           -4.0825    -1.3101     1.2314 C.ar    
  15 C15           -5.1749    -2.1754     1.2361 C.ar    
  16 C16           -5.7278    -2.5975     0.0291 C.ar    
  17 C17           -5.1917    -2.1570    -1.1643 C.ar    
  18 C18           -4.1112    -1.2938    -1.1630 C.ar    
  19 C19           -5.7466    -2.6459     2.5221 C.ar    
  20 C20           -6.8360    -3.5089     2.5241 C.ar    
  21 C21           -7.3692    -3.9478     3.7364 C.ar    
  22 C22           -6.8035    -3.5161     4.9413 C.ar    
  23 C23           -5.7190    -2.6563     4.9281 C.ar    
  24 C24           -5.1871    -2.2266     3.7297 C.ar    
  25 C25            6.1661     1.4626    -0.0481 C.3     
  26 C26            6.5020     2.2940    -1.2986 C.3     
  27 C27            7.0394     3.6495    -0.7952 C.3     
  28 C28            7.5601     3.3456     0.6315 C.3     
  29 C29            6.5112     2.3419     1.1715 C.3     
  30 C30           -8.5263    -4.8639     3.7479 C.2     
  31 O31           -9.0695    -5.2777     2.5865 O.3     
  32 O32           -8.9890    -5.2448     4.8047 O.2     
  33 F33           -7.3163    -3.9384     6.1177 F       
  34 H34           -0.9640     1.9089     0.0170 H       
  35 H35            1.2322    -1.7561    -0.0187 H       
  36 H36            1.1007     3.1857     0.0083 H       
  37 H37           -2.3987     0.6834     0.9195 H       
  38 H38           -2.4164     0.6929    -0.8603 H       
  39 H39           -3.6498    -0.9801     2.1642 H       
  40 H40           -6.5742    -3.2683     0.0270 H       
  41 H41           -5.6194    -2.4839    -2.1006 H       
  42 H42           -3.6950    -0.9513    -2.0990 H       
  43 H43           -7.2684    -3.8382     1.5908 H       
  44 H44           -5.2844    -2.3243     5.8594 H       
  45 H45           -4.3408    -1.5556     3.7264 H       
  46 H46            6.7644     0.5515    -0.0337 H       
  47 H47            7.2638     1.7868    -1.8906 H       
  48 H48            5.6041     2.4473    -1.8972 H       
  49 H49            7.8527     3.9977    -1.4320 H       
  50 H50            6.2385     4.3881    -0.7598 H       
  51 H51            8.5485     2.8879     0.5927 H       
  52 H52            7.5761     4.2512     1.2380 H       
  53 H53            5.6250     2.8692     1.5246 H       
  54 H54            6.9390     1.7357     1.9700 H       
  55 H55           -9.8259    -5.8773     2.6446 H       
@<TRIPOS>BOND
   1    1    2 ar
   2    1    6 ar
   3    1   34 1
   4    2    3 ar
   5    2   11 1
   6    3    4 ar
   7    3   35 1
   8    4    5 ar
   9    4    7 1
  10    5    6 ar
  11    5    9 1
  12    6   36 1
  13    7    8 1
  14    8    9 am
  15    8   25 1
  16    9   10 2
  17   11   12 1
  18   12   13 1
  19   12   37 1
  20   12   38 1
  21   13   14 ar
  22   13   18 ar
  23   14   15 ar
  24   14   39 1
  25   15   16 ar
  26   15   19 1
  27   16   17 ar
  28   16   40 1
  29   17   18 ar
  30   17   41 1
  31   18   42 1
  32   19   20 ar
  33   19   24 ar
  34   20   21 ar
  35   20   43 1
  36   21   22 ar
  37   21   30 1
  38   22   23 ar
  39   22   33 1
  40   23   24 ar
  41   23   44 1
  42   24   45 1
  43   25   26 1
  44   25   29 1
  45   25   46 1
  46   26   27 1
  47   26   47 1
  48   26   48 1
  49   27   28 1
  50   27   49 1
  51   27   50 1
  52   28   29 1
  53   28   51 1
  54   28   52 1
  55   29   53 1
  56   29   54 1
  57   30   31 1
  58   30   32 2
  59   31   55 1

#	End of record

