#	Name: ASD01903022
#	Creating user name:	WinNT
#	Creation time:	15. 06. 2019 19:54

#	Modifying user name:	WinNT
#	Modification time:	15. 06. 2019 19:54

#	Program:	/corina/corina34_cracker 3.40 0067  02.08.2006

@<TRIPOS>MOLECULE
ASD01903022
  29   30    0    0    0
SMALL
NO_CHARGES


@<TRIPOS>ATOM
   1 C1             0.0072     1.3789    -0.2064 C.ar    
   2 C2             0.0289    -0.0062    -0.2071 C.ar    
   3 C3             1.2246    -0.6814     0.0074 C.ar    
   4 C4             2.3921     0.0286     0.2218 C.ar    
   5 C5             2.3727     1.4105     0.2228 C.ar    
   6 C6             1.1805     2.0894     0.0085 C.ar    
   7 N7             1.1615     3.4885     0.0097 N.am    
   8 C8             2.2071     4.1771    -0.4895 C.2     
   9 O9             3.2014     3.5862    -0.8626 O.2     
  10 C10            2.1443     5.6540    -0.5833 C.ar    
  11 O11           -1.1185    -0.7045    -0.4169 O.3     
  12 N12            1.0551     6.2937    -0.1739 N.ar    
  13 C13            0.9593     7.6056    -0.2403 C.ar    
  14 C14            2.0026     8.3711    -0.7449 C.ar    
  15 C15            3.1562     7.7415    -1.1823 C.ar    
  16 C16            3.2303     6.3597    -1.0948 C.ar    
  17 F17           -0.1684     8.2145     0.1873 F       
  18 F18            1.2465    -2.0322     0.0069 F       
  19 C19           -2.3103     0.0547    -0.6299 C.3     
  20 H20           -0.9203     1.9052    -0.3773 H       
  21 H21            3.3202    -0.4977     0.3889 H       
  22 H22            3.2856     1.9628     0.3904 H       
  23 H23            0.3959     3.9629     0.3698 H       
  24 H24            1.9152     9.4463    -0.7959 H       
  25 H25            3.9814     8.3146    -1.5787 H       
  26 H26            4.1151     5.8371    -1.4269 H       
  27 H27           -2.5032     0.6802     0.2417 H       
  28 H28           -2.1865     0.6859    -1.5098 H       
  29 H29           -3.1500    -0.6229    -0.7839 H       
@<TRIPOS>BOND
   1    1    2 ar
   2    1    6 ar
   3    1   20 1
   4    2    3 ar
   5    2   11 1
   6    3    4 ar
   7    3   18 1
   8    4    5 ar
   9    4   21 1
  10    5    6 ar
  11    5   22 1
  12    6    7 1
  13    7    8 am
  14    7   23 1
  15    8    9 2
  16    8   10 1
  17   10   12 ar
  18   10   16 ar
  19   11   19 1
  20   12   13 ar
  21   13   14 ar
  22   13   17 1
  23   14   15 ar
  24   14   24 1
  25   15   16 ar
  26   15   25 1
  27   16   26 1
  28   19   27 1
  29   19   28 1
  30   19   29 1

#	End of record

