#	Name: ASD05872008
#	Creating user name:	WinNT
#	Creation time:	15. 06. 2019 21:04

#	Modifying user name:	WinNT
#	Modification time:	15. 06. 2019 21:04

#	Program:	/corina/corina34_cracker 3.40 0067  02.08.2006

@<TRIPOS>MOLECULE
ASD05872008
  51   54    0    0    0
SMALL
NO_CHARGES


@<TRIPOS>ATOM
   1 C1            -0.0168     1.3909     0.0097 C.ar    
   2 C2             0.0021    -0.0041     0.0020 C.ar    
   3 C3            -1.1847    -0.7120     0.0100 C.ar    
   4 C4            -2.3951    -0.0264     0.0257 C.ar    
   5 C5            -2.4171     1.3753     0.0334 C.ar    
   6 C6            -1.2171     2.0759     0.0306 C.ar    
   7 C7            -3.8133    -0.4424     0.0376 C.2     
   8 C8            -4.5359     0.7136     0.0509 C.2     
   9 O9            -3.7097     1.7647     0.0484 O.3     
  10 C10           -4.3343    -1.8126     0.0347 C.2     
  11 C11           -6.0407     0.7945     0.0668 C.3     
  12 O12           -6.5025     0.8131     1.4190 O.3     
  13 C13           -7.8473     0.8846     1.6114 C.ar    
  14 C14           -8.6985     0.9355     0.5244 C.ar    
  15 C15          -10.0730     1.0080     0.7290 C.ar    
  16 C16          -10.5970     1.0298     2.0287 C.ar    
  17 C17           -9.7304     0.9788     3.1143 C.ar    
  18 C18           -8.3666     0.9008     2.9066 C.ar    
  19 C19          -11.2449     1.0743    -0.1691 C.2     
  20 C20          -12.3337     1.1282     0.6497 C.2     
  21 O21          -11.9413     1.1015     1.9275 O.3     
  22 C22          -11.2380     1.0808    -1.6350 C.2     
  23 C23          -13.7648     1.2067     0.1842 C.3     
  24 O24           -3.5610    -2.7615     0.0212 O.co2   
  25 O25           -5.5428    -2.0079     0.0457 O.co2   
  26 O26          -10.1764     1.0273    -2.2424 O.co2   
  27 O27          -12.2938     1.1396    -2.2519 O.co2   
  28 O28            1.1895    -0.6678    -0.0138 O.3     
  29 S29            1.7442    -0.9772     1.3693 S.o2    
  30 O30            3.1401    -1.3445     1.1889 O.co2   
  31 O31            1.5963     0.2340     2.1612 O.co2   
  32 O32            0.9547    -2.0771     1.9014 O.co2   
  33 O33            1.1546     2.0818     0.0022 O.3     
  34 C34            1.0666     3.5081     0.0107 C.3     
  35 O35           -7.5233     0.8512     3.9724 O.3     
  36 C36           -8.1173     0.8838     5.2717 C.3     
  37 H37           -1.1726    -1.7919     0.0037 H       
  38 H38           -1.2223     3.1559     0.0368 H       
  39 H39           -6.3609     1.7054    -0.4391 H       
  40 H40           -6.4566    -0.0720    -0.4473 H       
  41 H41           -8.2992     0.9193    -0.4789 H       
  42 H42          -10.1233     0.9950     4.1201 H       
  43 H43          -14.1645     0.1994     0.0669 H       
  44 H44          -14.3573     1.7491     0.9209 H       
  45 H45          -13.8078     1.7282    -0.7720 H       
  46 H46            0.5229     3.8438    -0.8723 H       
  47 H47            0.5399     3.8343     0.9075 H       
  48 H48            2.0699     3.9340     0.0034 H       
  49 H49           -8.6837     1.8076     5.3892 H       
  50 H50           -8.7857     0.0306     5.3872 H       
  51 H51           -7.3355     0.8381     6.0299 H       
@<TRIPOS>BOND
   1    1    2 ar
   2    1   33 1
   3    1    6 ar
   4    2    3 ar
   5    2   28 1
   6    3    4 ar
   7    3   37 1
   8    4    5 ar
   9    4    7 1
  10    5    6 ar
  11    5    9 1
  12    6   38 1
  13    7    8 2
  14    7   10 1
  15    8    9 1
  16    8   11 1
  17   10   24 ar
  18   10   25 ar
  19   11   12 1
  20   11   39 1
  21   11   40 1
  22   12   13 1
  23   13   14 ar
  24   13   18 ar
  25   14   15 ar
  26   14   41 1
  27   15   16 ar
  28   15   19 1
  29   16   17 ar
  30   16   21 1
  31   17   18 ar
  32   17   42 1
  33   18   35 1
  34   19   20 2
  35   19   22 1
  36   20   21 1
  37   20   23 1
  38   22   26 ar
  39   22   27 ar
  40   23   43 1
  41   23   44 1
  42   23   45 1
  43   28   29 1
  44   29   30 ar
  45   29   31 ar
  46   29   32 ar
  47   33   34 1
  48   34   46 1
  49   34   47 1
  50   34   48 1
  51   35   36 1
  52   36   49 1
  53   36   50 1
  54   36   51 1

#	End of record

