#	Name: ASD00170943
#	Creating user name:	WinNT
#	Creation time:	15. 06. 2019 18:32

#	Modifying user name:	WinNT
#	Modification time:	15. 06. 2019 18:32

#	Program:	/corina/corina34_cracker 3.40 0067  02.08.2006

@<TRIPOS>MOLECULE
ASD00170943
  52   56    0    0    0
SMALL
NO_CHARGES


@<TRIPOS>ATOM
   1 C1           -12.0528    -1.9514    -1.0858 C.ar    
   2 C2           -12.0865    -2.1486     0.2848 C.ar    
   3 C3           -11.0340    -1.7287     1.0706 C.ar    
   4 C4            -9.9331    -1.1036     0.4821 C.ar    
   5 C5            -9.9049    -0.9075    -0.8998 C.ar    
   6 C6           -10.9609    -1.3366    -1.6760 C.ar    
   7 C7            -8.8015    -0.6505     1.3194 C.2     
   8 O8            -8.8664    -0.7419     2.5320 O.2     
   9 C9            -7.6043    -0.0924     0.6911 C.2     
  10 C10           -6.4796    -0.8930     0.2550 C.2     
  11 C11           -5.5075    -0.1757    -0.2864 C.2     
  12 S12           -5.9168     1.5303    -0.2929 S.3     
  13 C13           -7.4273     1.2494     0.4450 C.2     
  14 N14           -8.3432     2.2330     0.7588 N.pl3   
  15 C15           -6.4212    -2.3917     0.4026 C.3     
  16 N16           -6.1746    -2.7360     1.8092 N.3     
  17 Cl17         -13.3812    -2.4833    -2.0688 Cl      
  18 C18           -6.4776    -4.1538     2.0663 C.3     
  19 C19           -6.0949    -4.4734     3.4887 C.2     
  20 C20           -5.2883    -3.6916     4.2423 C.2     
  21 C21           -4.6797    -2.4075     3.7279 C.3     
  22 C22           -4.7965    -2.4058     2.1984 C.3     
  23 C23           -6.4759    -5.6040     4.3065 C.ar    
  24 C24           -5.8403    -5.4106     5.5606 C.ar    
  25 N25           -5.1320    -4.2447     5.4832 N.pl3   
  26 C26           -7.2811    -6.7220     4.0668 C.ar    
  27 C27           -7.4249    -7.6172     5.0988 C.ar    
  28 C28           -6.8064    -7.4321     6.3256 C.ar    
  29 C29           -6.0046    -6.3354     6.5896 C.ar    
  30 Cl30          -8.4128    -9.0245     4.8594 Cl      
  31 C31           -4.3283    -3.6727     6.5663 C.3     
  32 H32          -12.9388    -2.6320     0.7389 H       
  33 H33          -11.0615    -1.8827     2.1392 H       
  34 H34           -9.0560    -0.4242    -1.3605 H       
  35 H35          -10.9402    -1.1855    -2.7452 H       
  36 H36           -4.5860    -0.5857    -0.6724 H       
  37 H37           -8.1831     3.1498     0.4856 H       
  38 H38           -9.1471     2.0074     1.2526 H       
  39 H39           -7.3688    -2.8254     0.0831 H       
  40 H40           -5.6145    -2.7864    -0.2150 H       
  41 H41           -7.5436    -4.3321     1.9250 H       
  42 H42           -5.9046    -4.7807     1.3831 H       
  43 H43           -5.2190    -1.5539     4.1385 H       
  44 H44           -3.6303    -2.3553     4.0180 H       
  45 H45           -4.1149    -3.1471     1.7814 H       
  46 H46           -4.5372    -1.4187     1.8156 H       
  47 H47           -7.7677    -6.8743     3.1147 H       
  48 H48           -6.9551    -8.1686     7.1014 H       
  49 H49           -5.5283    -6.2023     7.5497 H       
  50 H50           -3.3085    -4.0519     6.5012 H       
  51 H51           -4.3185    -2.5864     6.4767 H       
  52 H52           -4.7600    -3.9542     7.5267 H       
@<TRIPOS>BOND
   1    1    2 ar
   2    1   17 1
   3    1    6 ar
   4    2    3 ar
   5    2   32 1
   6    3    4 ar
   7    3   33 1
   8    4    5 ar
   9    4    7 1
  10    5    6 ar
  11    5   34 1
  12    6   35 1
  13    7    8 2
  14    7    9 1
  15    9   10 1
  16    9   13 2
  17   10   11 2
  18   10   15 1
  19   11   12 1
  20   11   36 1
  21   12   13 1
  22   13   14 1
  23   14   37 1
  24   14   38 1
  25   15   16 1
  26   15   39 1
  27   15   40 1
  28   16   18 1
  29   16   22 1
  30   18   19 1
  31   18   41 1
  32   18   42 1
  33   19   23 1
  34   19   20 2
  35   20   21 1
  36   20   25 1
  37   21   22 1
  38   21   43 1
  39   21   44 1
  40   22   45 1
  41   22   46 1
  42   23   24 ar
  43   23   26 ar
  44   24   25 1
  45   24   29 ar
  46   25   31 1
  47   26   27 ar
  48   26   47 1
  49   27   28 ar
  50   27   30 1
  51   28   29 ar
  52   28   48 1
  53   29   49 1
  54   31   50 1
  55   31   51 1
  56   31   52 1

#	End of record

