#	Name: ASD02440048
#	Creating user name:	WinNT
#	Creation time:	15. 06. 2019 20:21

#	Modifying user name:	WinNT
#	Modification time:	15. 06. 2019 20:21

#	Program:	/corina/corina34_cracker 3.40 0067  02.08.2006

@<TRIPOS>MOLECULE
ASD02440048
  54   57    0    0    0
SMALL
NO_CHARGES


@<TRIPOS>ATOM
   1 N1             0.0353     1.4692    -0.6706 N.am    
   2 C2             0.0635     0.1759    -1.0120 C.2     
   3 S3             1.7467    -0.3590    -0.8647 S.3     
   4 C4             2.3523     1.2236    -0.3365 C.2     
   5 C5             1.1565     2.0740    -0.3152 C.2     
   6 S6            -1.2713    -0.7799    -1.4973 S.2     
   7 C7            -1.2274     2.2117    -0.6961 C.3     
   8 C8            -1.9004     2.1045     0.6480 C.ar    
   9 O9             1.1939     3.2477     0.0051 O.2     
  10 C10            3.6276     1.5679    -0.0242 C.2     
  11 C11            4.6681     0.5349     0.0570 C.ar    
  12 C12            6.0183     0.8863    -0.0639 C.ar    
  13 C13            6.9896    -0.0862     0.0135 C.ar    
  14 C14            6.6322    -1.4150     0.2107 C.ar    
  15 C15            5.2935    -1.7696     0.3314 C.ar    
  16 C16            4.3142    -0.8046     0.2613 C.ar    
  17 C17           -3.3973     0.9599     2.1259 C.ar    
  18 C18           -2.7775     1.0638     0.8979 C.ar    
  19 C19           -1.6342     3.0439     1.6283 C.ar    
  20 C20           -2.2468     2.9518     2.8609 C.ar    
  21 C21           -3.1373     1.9075     3.1180 C.ar    
  22 C22           -3.7977     1.8029     4.4352 C.2     
  23 O23           -4.5691     0.8911     4.6572 O.2     
  24 O24           -3.5447     2.7187     5.3902 O.3     
  25 O25            7.5942    -2.3702     0.2853 O.3     
  26 C26            7.1581    -3.7157     0.4891 C.3     
  27 C27            8.3739    -4.6428     0.5460 C.3     
  28 C28            7.9139    -6.0617     0.7609 C.ar    
  29 C29            7.7628    -6.5524     2.0444 C.ar    
  30 C30            7.6377    -6.8708    -0.3254 C.ar    
  31 C31            7.2159    -8.1723    -0.1282 C.ar    
  32 C32            7.0707    -8.6650     1.1552 C.ar    
  33 C33            7.3409    -7.8540     2.2415 C.ar    
  34 H34           -1.0282     3.2596    -0.9202 H       
  35 H35           -1.8792     1.7936    -1.4632 H       
  36 H36            3.8771     2.6016     0.1646 H       
  37 H37            6.2970     1.9183    -0.2178 H       
  38 H38            8.0312     0.1837    -0.0796 H       
  39 H39            5.0214    -2.8035     0.4845 H       
  40 H40            3.2744    -1.0811     0.3552 H       
  41 H41           -4.0822     0.1476     2.3194 H       
  42 H42           -2.9774     0.3315     0.1298 H       
  43 H43           -0.9450     3.8509     1.4282 H       
  44 H44           -2.0379     3.6855     3.6253 H       
  45 H45           -4.0005     2.6086     6.2359 H       
  46 H46            6.6072    -3.7809     1.4274 H       
  47 H47            6.5102    -4.0162    -0.3343 H       
  48 H48            8.9247    -4.5776    -0.3923 H       
  49 H49            9.0218    -4.3422     1.3694 H       
  50 H50            7.9747    -5.9190     2.8931 H       
  51 H51            7.7512    -6.4859    -1.3281 H       
  52 H52            6.9994    -8.8042    -0.9769 H       
  53 H53            6.7408    -9.6817     1.3092 H       
  54 H54            7.2232    -8.2374     3.2442 H       
@<TRIPOS>BOND
   1    1    2 am
   2    1    5 am
   3    1    7 1
   4    2    3 1
   5    2    6 2
   6    3    4 1
   7    4    5 1
   8    4   10 2
   9    5    9 2
  10    7    8 1
  11    7   34 1
  12    7   35 1
  13    8   19 ar
  14    8   18 ar
  15   10   11 1
  16   10   36 1
  17   11   12 ar
  18   11   16 ar
  19   12   13 ar
  20   12   37 1
  21   13   14 ar
  22   13   38 1
  23   14   15 ar
  24   14   25 1
  25   15   16 ar
  26   15   39 1
  27   16   40 1
  28   17   18 ar
  29   17   21 ar
  30   17   41 1
  31   18   42 1
  32   19   20 ar
  33   19   43 1
  34   20   21 ar
  35   20   44 1
  36   21   22 1
  37   22   23 2
  38   22   24 1
  39   24   45 1
  40   25   26 1
  41   26   27 1
  42   26   46 1
  43   26   47 1
  44   27   28 1
  45   27   48 1
  46   27   49 1
  47   28   30 ar
  48   28   29 ar
  49   29   33 ar
  50   29   50 1
  51   30   31 ar
  52   30   51 1
  53   31   32 ar
  54   31   52 1
  55   32   33 ar
  56   32   53 1
  57   33   54 1

#	End of record

