#	Name: ASD00990011
#	Creating user name:	WinNT
#	Creation time:	15. 06. 2019 18:54

#	Modifying user name:	WinNT
#	Modification time:	15. 06. 2019 18:54

#	Program:	/corina/corina34_cracker 3.40 0067  02.08.2006

@<TRIPOS>MOLECULE
ASD00990011
  59   61    0    0    0
SMALL
NO_CHARGES


@<TRIPOS>ATOM
   1 C1            -0.0189     1.5389     0.0105 C.3     
   2 C2             0.0021    -0.0041     0.0020 C.3     
   3 N3             1.3058    -0.4202    -0.5467 N.3     
   4 C4             2.0771     0.7912    -0.8979 C.3     
   5 C5             1.4877     1.9090    -0.0019 C.3     
   6 C6             3.5388     0.5895    -0.5918 C.2     
   7 N7             4.4630     1.3884    -1.1613 N.am    
   8 C8             5.8840     1.1923    -0.8638 C.3     
   9 O9             3.8836    -0.2916     0.1668 O.2     
  10 C10            6.4815     0.1580    -1.7920 C.2     
  11 N11            7.1960     0.7612    -2.7577 N.am    
  12 C12            7.1625     2.2212    -2.6125 C.3     
  13 C13            6.6832     2.4808    -1.1671 C.3     
  14 O14            6.3374    -1.0411    -1.6808 O.2     
  15 C15            7.9160     0.0523    -3.8184 C.3     
  16 C16            7.0057    -0.1356    -5.0046 C.2     
  17 N17            7.4563    -0.7672    -6.1066 N.am    
  18 C18            6.5714    -0.9498    -7.2597 C.3     
  19 C19            7.3233    -1.6902    -8.3675 C.3     
  20 N20            6.4383    -1.8728    -9.5207 N.am    
  21 C21            6.8890    -2.5045   -10.6226 C.2     
  22 O22            5.8675     0.2816    -4.9676 O.2     
  23 O23            8.0302    -2.9228   -10.6598 O.2     
  24 C24            5.9982    -2.6883   -11.7833 C.ar    
  25 C25            4.6846    -2.2022   -11.7301 C.ar    
  26 C26            3.8483    -2.3623   -12.7907 C.ar    
  27 C27            4.3312    -3.0474   -13.9921 C.ar    
  28 C28            5.6651    -3.5304   -14.0227 C.ar    
  29 C29            6.4802    -3.3435   -12.9302 C.ar    
  30 N30            3.5343    -3.2140   -15.0343 N.2     
  31 N31            2.4789    -2.8288   -15.0020 N.1     
  32 N32            1.4234    -2.4437   -14.9697 N.pl3   
  33 O33            7.7564    -3.8040   -12.9559 O.3     
  34 H34           -0.5172     1.9225    -0.8798 H       
  35 H35           -0.5001     1.9129     0.9142 H       
  36 H36           -0.1103    -0.3820     1.0182 H       
  37 H37           -0.8031    -0.3824    -0.6278 H       
  38 H38            1.8107    -0.9913     0.1144 H       
  39 H39            1.9393     1.0367    -1.9509 H       
  40 H40            1.6450     2.8909    -0.4483 H       
  41 H41            1.9085     1.8666     1.0027 H       
  42 H42            4.1873     2.0931    -1.7681 H       
  43 H43            6.0175     0.8941     0.1761 H       
  44 H44            8.1589     2.6379    -2.7601 H       
  45 H45            6.4619     2.6553    -3.3259 H       
  46 H46            6.0393     3.3591    -1.1215 H       
  47 H47            7.5296     2.5838    -0.4880 H       
  48 H48            8.7875     0.6345    -4.1179 H       
  49 H49            8.2388    -0.9216    -3.4503 H       
  50 H50            8.3667    -1.1009    -6.1362 H       
  51 H51            5.6999    -1.5321    -6.9603 H       
  52 H52            6.2486     0.0240    -7.6279 H       
  53 H53            8.1948    -1.1079    -8.6670 H       
  54 H54            7.6461    -2.6641    -7.9994 H       
  55 H55            5.5280    -1.5391    -9.4910 H       
  56 H56            4.3343    -1.6980   -10.8416 H       
  57 H57            2.8363    -1.9877   -12.7473 H       
  58 H58            6.0392    -4.0383   -14.8993 H       
  59 H59            8.3978    -3.1663   -13.2978 H       
@<TRIPOS>BOND
   1    1    2 1
   2    1    5 1
   3    1   34 1
   4    1   35 1
   5    2    3 1
   6    2   36 1
   7    2   37 1
   8    3    4 1
   9    3   38 1
  10    4    5 1
  11    4    6 1
  12    4   39 1
  13    5   40 1
  14    5   41 1
  15    6    7 am
  16    6    9 2
  17    7    8 1
  18    7   42 1
  19    8   10 1
  20    8   13 1
  21    8   43 1
  22   10   11 am
  23   10   14 2
  24   11   12 1
  25   11   15 1
  26   12   13 1
  27   12   44 1
  28   12   45 1
  29   13   46 1
  30   13   47 1
  31   15   16 1
  32   15   48 1
  33   15   49 1
  34   16   17 am
  35   16   22 2
  36   17   18 1
  37   17   50 1
  38   18   19 1
  39   18   51 1
  40   18   52 1
  41   19   20 1
  42   19   53 1
  43   19   54 1
  44   20   21 am
  45   20   55 1
  46   21   23 2
  47   21   24 1
  48   24   25 ar
  49   24   29 ar
  50   25   26 ar
  51   25   56 1
  52   26   27 ar
  53   26   57 1
  54   27   28 ar
  55   27   30 1
  56   28   29 ar
  57   28   58 1
  58   29   33 1
  59   30   31 2
  60   31   32 2
  61   33   59 1

#	End of record

