#	Name: ASD01914141
#	Creating user name:	WinNT
#	Creation time:	15. 06. 2019 20:02

#	Modifying user name:	WinNT
#	Modification time:	15. 06. 2019 20:02

#	Program:	/corina/corina34_cracker 3.40 0067  02.08.2006

@<TRIPOS>MOLECULE
ASD01914141
  45   48    0    0    0
SMALL
NO_CHARGES


@<TRIPOS>ATOM
   1 C1            -2.7879    -0.0363    -1.2545 C.2     
   2 C2            -2.1630    -1.3165    -0.8618 C.2     
   3 N3            -2.7897    -2.3805    -0.3067 N.2     
   4 C4            -1.8584    -3.2831    -0.1278 C.2     
   5 O5            -0.7103    -2.7591    -0.5687 O.3     
   6 N6            -0.8993    -1.6377    -0.9905 N.2     
   7 C7            -2.0454    -4.6559     0.4652 C.3     
   8 C8            -1.6332    -5.7154    -0.5593 C.3     
   9 C9            -0.1726    -5.4977    -0.9613 C.3     
  10 C10            0.7205    -5.6466     0.2744 C.3     
  11 N11            0.2393    -4.7320     1.3187 N.am    
  12 C12           -1.1735    -4.7953     1.7171 C.3     
  13 C13            2.1640    -5.2943    -0.0906 C.3     
  14 C14            1.0779    -3.8516     1.9003 C.2     
  15 C15            0.5539    -2.8505     2.8537 C.ar    
  16 C16            1.3451    -2.4147     3.9175 C.ar    
  17 C17            0.8509    -1.4798     4.8039 C.ar    
  18 C18           -0.4261    -0.9741     4.6403 C.ar    
  19 C19           -1.2171    -1.4023     3.5873 C.ar    
  20 C20           -0.7321    -2.3330     2.6903 C.ar    
  21 O21            2.2651    -3.8808     1.6409 O.2     
  22 C22           -2.1489     1.0304    -1.8132 C.2     
  23 C23           -3.1111     2.0301    -2.0251 C.2     
  24 C24           -4.3009     1.5530    -1.5948 C.2     
  25 N25           -4.1151     0.2873    -1.1269 N.pl3   
  26 Cl26          -2.8250     3.5973    -2.7147 Cl      
  27 Cl27          -2.8190    -0.7627     3.3910 Cl      
  28 H28           -3.0926    -4.7969     0.7331 H       
  29 H29           -1.7452    -6.7072    -0.1212 H       
  30 H30           -2.2685    -5.6343    -1.4413 H       
  31 H31            0.1134    -6.2381    -1.7083 H       
  32 H32           -0.0550    -4.4968    -1.3767 H       
  33 H33            0.6735    -6.6732     0.6377 H       
  34 H34           -1.3949    -3.9826     2.4089 H       
  35 H35           -1.3750    -5.7524     2.1980 H       
  36 H36            2.2304    -4.2319    -0.3254 H       
  37 H37            2.8176    -5.5218     0.7515 H       
  38 H38            2.4723    -5.8781    -0.9579 H       
  39 H39            2.3423    -2.8087     4.0470 H       
  40 H40            1.4625    -1.1423     5.6276 H       
  41 H41           -0.8081    -0.2426     5.3370 H       
  42 H42           -1.3493    -2.6662     1.8691 H       
  43 H43           -1.0969     1.0946    -2.0487 H       
  44 H44           -5.2408     2.0841    -1.6218 H       
  45 H45           -4.8048    -0.2869    -0.7587 H       
@<TRIPOS>BOND
   1    1    2 1
   2    1   22 2
   3    1   25 1
   4    2    3 1
   5    2    6 2
   6    3    4 2
   7    4    5 1
   8    4    7 1
   9    5    6 1
  10    7    8 1
  11    7   12 1
  12    7   28 1
  13    8    9 1
  14    8   29 1
  15    8   30 1
  16    9   10 1
  17    9   31 1
  18    9   32 1
  19   10   11 1
  20   10   13 1
  21   10   33 1
  22   11   12 1
  23   11   14 am
  24   12   34 1
  25   12   35 1
  26   13   36 1
  27   13   37 1
  28   13   38 1
  29   14   15 1
  30   14   21 2
  31   15   16 ar
  32   15   20 ar
  33   16   17 ar
  34   16   39 1
  35   17   18 ar
  36   17   40 1
  37   18   19 ar
  38   18   41 1
  39   19   20 ar
  40   19   27 1
  41   20   42 1
  42   22   23 1
  43   22   43 1
  44   23   24 2
  45   23   26 1
  46   24   25 1
  47   24   44 1
  48   25   45 1

#	End of record

