#	Name: ASD02198025
#	Creating user name:	WinNT
#	Creation time:	15. 06. 2019 20:18

#	Modifying user name:	WinNT
#	Modification time:	15. 06. 2019 20:18

#	Program:	/corina/corina34_cracker 3.40 0067  02.08.2006

@<TRIPOS>MOLECULE
ASD02198025
  45   47    0    0    0
SMALL
NO_CHARGES


@<TRIPOS>ATOM
   1 N1             0.1645     1.1398     0.2602 N.pl3   
   2 C2             0.1580    -0.2332     0.1681 C.2     
   3 C3            -0.9785    -1.0136     0.1969 C.2     
   4 C4            -2.2963    -0.4687     0.3275 C.1     
   5 S5             1.5536    -1.1973    -0.0042 S.3     
   6 C6             0.6080    -2.6771    -0.0313 C.2     
   7 C7            -0.7292    -2.3797     0.0869 C.2     
   8 C8             1.1398    -3.9746    -0.1597 C.2     
   9 O9             0.4117    -4.9460    -0.0449 O.2     
  10 C10            2.5820    -4.1592    -0.4338 C.ar    
  11 N11           -1.7274    -3.3414     0.0975 N.pl3   
  12 C12            1.3727     1.8249     0.3708 C.ar    
  13 C13            2.4214     1.2733     1.0910 C.ar    
  14 N14           -3.3418    -0.0364     0.4311 N.1     
  15 C15            3.6226     1.9548     1.2008 C.ar    
  16 C16            3.7844     3.1979     0.5886 C.ar    
  17 C17            2.7481     3.7572    -0.1309 C.ar    
  18 C18            1.5339     3.0734    -0.2517 C.ar    
  19 C19            3.2965    -3.1750    -1.1185 C.ar    
  20 O20            4.9671     3.8610     0.7016 O.3     
  21 C21            4.6406    -3.3526    -1.3713 C.ar    
  22 C22            5.2813    -4.5050    -0.9474 C.ar    
  23 C23            4.5774    -5.4851    -0.2675 C.ar    
  24 C24            3.2344    -5.3157    -0.0037 C.ar    
  25 Cl25           6.9732    -4.7222    -1.2701 Cl      
  26 C26            5.0648     5.1291     0.0501 C.3     
  27 O27            4.6469     1.4106     1.9079 O.3     
  28 C28            4.4144     0.1356     2.5097 C.3     
  29 C29            0.4556     3.6492    -0.9976 C.1     
  30 N30           -0.3998     4.1060    -1.5893 N.1     
  31 H31           -0.6718     1.6309     0.2441 H       
  32 H32           -1.4971    -4.2804     0.0189 H       
  33 H33           -2.6563    -3.0754     0.1836 H       
  34 H34            2.3015     0.3114     1.5673 H       
  35 H35            2.8759     4.7197    -0.6038 H       
  36 H36            2.7977    -2.2763    -1.4501 H       
  37 H37            5.1945    -2.5917    -1.9010 H       
  38 H38            5.0821    -6.3819     0.0603 H       
  39 H39            2.6865    -6.0804     0.5269 H       
  40 H40            4.9017     5.0013    -1.0200 H       
  41 H41            4.3107     5.8044     0.4544 H       
  42 H42            6.0564     5.5489     0.2190 H       
  43 H43            4.1732    -0.5930     1.7357 H       
  44 H44            5.3102    -0.1835     3.0425 H       
  45 H45            3.5825     0.2106     3.2100 H       
@<TRIPOS>BOND
   1    1    2 1
   2    1   12 1
   3    1   31 1
   4    2    3 2
   5    2    5 1
   6    3    4 1
   7    3    7 1
   8    4   14 3
   9    5    6 1
  10    6    7 2
  11    6    8 1
  12    7   11 1
  13    8    9 2
  14    8   10 1
  15   10   19 ar
  16   10   24 ar
  17   11   32 1
  18   11   33 1
  19   12   13 ar
  20   12   18 ar
  21   13   15 ar
  22   13   34 1
  23   15   16 ar
  24   15   27 1
  25   16   17 ar
  26   16   20 1
  27   17   18 ar
  28   17   35 1
  29   18   29 1
  30   19   21 ar
  31   19   36 1
  32   20   26 1
  33   21   22 ar
  34   21   37 1
  35   22   23 ar
  36   22   25 1
  37   23   24 ar
  38   23   38 1
  39   24   39 1
  40   26   40 1
  41   26   41 1
  42   26   42 1
  43   27   28 1
  44   28   43 1
  45   28   44 1
  46   28   45 1
  47   29   30 3

#	End of record

