#	Name: ASD01917806
#	Creating user name:	WinNT
#	Creation time:	15. 06. 2019 20:10

#	Modifying user name:	WinNT
#	Modification time:	15. 06. 2019 20:10

#	Program:	/corina/corina34_cracker 3.40 0067  02.08.2006

@<TRIPOS>MOLECULE
ASD01917806
  41   44    0    0    0
SMALL
NO_CHARGES


@<TRIPOS>ATOM
   1 C1             0.0935     0.9828    -0.7303 C.2     
   2 C2            -0.0331    -0.3575    -0.6910 C.2     
   3 C3            -1.3186    -1.0865    -0.3922 C.3     
   4 C4            -2.2941    -0.1141     0.2824 C.3     
   5 N5            -2.2854     1.1621    -0.4483 N.am    
   6 C6            -1.0375     1.9469    -0.4695 C.3     
   7 C7            -3.3897     1.6029    -1.0828 C.2     
   8 O8            -4.3727     0.8897    -1.1598 O.2     
   9 O9             1.3701     1.2574    -1.0284 O.3     
  10 C10            2.0140     0.0875    -1.1655 C.2     
  11 N11            1.1682    -0.8852    -0.9617 N.2     
  12 C12            3.4742    -0.0759    -1.5003 C.3     
  13 O13            3.6334    -0.1396    -2.9190 O.3     
  14 C14            4.8989    -0.2872    -3.3919 C.ar    
  15 C15            5.1262    -0.3563    -4.7587 C.ar    
  16 C16            6.4136    -0.5065    -5.2369 C.ar    
  17 C17            7.4749    -0.5879    -4.3545 C.ar    
  18 C18            7.2509    -0.5197    -2.9918 C.ar    
  19 C19            5.9661    -0.3634    -2.5088 C.ar    
  20 C20           -3.4068     2.9423    -1.6804 C.2     
  21 N21           -2.5434     3.9741    -1.3895 N.pl3   
  22 C22           -2.8804     5.0473    -2.1455 C.2     
  23 C23           -3.9453     4.7227    -2.9171 C.2     
  24 C24           -4.2867     3.3952    -2.6403 C.2     
  25 H25           -1.7540    -1.4549    -1.3211 H       
  26 H26           -1.1168    -1.9237     0.2760 H       
  27 H27           -3.2989    -0.5362     0.2663 H       
  28 H28           -1.9853     0.0547     1.3141 H       
  29 H29           -0.8915     2.4377     0.4927 H       
  30 H30           -1.0811     2.6917    -1.2641 H       
  31 H31            4.0338     0.7741    -1.1098 H       
  32 H32            3.8494    -0.9953    -1.0510 H       
  33 H33            4.2975    -0.2932    -5.4483 H       
  34 H34            6.5911    -0.5607    -6.3008 H       
  35 H35            8.4806    -0.7053    -4.7303 H       
  36 H36            8.0816    -0.5843    -2.3046 H       
  37 H37            5.7916    -0.3102    -1.4443 H       
  38 H38           -1.8152     3.9391    -0.7496 H       
  39 H39           -2.3817     6.0052    -2.1342 H       
  40 H40           -4.4401     5.3724    -3.6238 H       
  41 H41           -5.0898     2.8315    -3.0919 H       
@<TRIPOS>BOND
   1    1    2 2
   2    1    9 1
   3    1    6 1
   4    2    3 1
   5    2   11 1
   6    3    4 1
   7    3   25 1
   8    3   26 1
   9    4    5 1
  10    4   27 1
  11    4   28 1
  12    5    6 1
  13    5    7 am
  14    6   29 1
  15    6   30 1
  16    7    8 2
  17    7   20 1
  18    9   10 1
  19   10   11 2
  20   10   12 1
  21   12   13 1
  22   12   31 1
  23   12   32 1
  24   13   14 1
  25   14   15 ar
  26   14   19 ar
  27   15   16 ar
  28   15   33 1
  29   16   17 ar
  30   16   34 1
  31   17   18 ar
  32   17   35 1
  33   18   19 ar
  34   18   36 1
  35   19   37 1
  36   20   21 1
  37   20   24 2
  38   21   22 1
  39   21   38 1
  40   22   23 2
  41   22   39 1
  42   23   24 1
  43   23   40 1
  44   24   41 1

#	End of record

