#	Name: ASD03520012
#	Creating user name:	WinNT
#	Creation time:	15. 06. 2019 20:42

#	Modifying user name:	WinNT
#	Modification time:	15. 06. 2019 20:42

#	Program:	/corina/corina34_cracker 3.40 0067  02.08.2006

@<TRIPOS>MOLECULE
ASD03520012
  55   60    0    0    0
SMALL
NO_CHARGES


@<TRIPOS>ATOM
   1 C1            -0.7781     3.1090     0.9870 C.ar    
   2 C2            -1.4364     3.6008     2.0982 C.ar    
   3 C3            -0.7705     4.4302     2.9947 C.ar    
   4 C4             0.5558     4.7740     2.7876 C.ar    
   5 C5             1.2338     4.2910     1.6781 C.ar    
   6 C6             0.5637     3.4520     0.7710 C.ar    
   7 O7             2.5254     4.6191     1.4654 O.3     
   8 C8             3.2161     4.1712     0.4021 C.2     
   9 C9             2.6539     3.3470    -0.5429 C.2     
  10 C10            1.2985     2.9490    -0.4004 C.2     
  11 C11            4.6183     4.5769     0.2453 C.2     
  12 C12            5.6160     3.6692     0.1893 C.2     
  13 C13            6.9873     4.3164     0.0203 C.3     
  14 C14            6.8792     5.1918    -1.2236 C.2     
  15 C15            5.8068     6.2771    -1.1716 C.3     
  16 C16            5.0128     6.0229     0.1329 C.3     
  17 O17            0.7633     2.2180    -1.2183 O.2     
  18 O18            3.3884     2.9169    -1.6042 O.3     
  19 O19           -1.4245     2.2953     0.1142 O.3     
  20 O20           -1.4266     4.9077     4.0831 O.3     
  21 C21            7.1691     5.2686     1.2136 C.3     
  22 O22            7.5939     5.0373    -2.1847 O.2     
  23 C23            6.1020     6.3757     1.1747 C.3     
  24 C24            6.7604     7.6104     0.5017 C.3     
  25 O25            6.5109     7.5109    -0.8970 O.3     
  26 O26            4.9975     6.3321    -2.3480 O.3     
  27 C27            7.0416     4.4897     2.4974 C.ar    
  28 C28            8.1772     4.0640     3.1617 C.ar    
  29 C29            8.0617     3.3480     4.3419 C.ar    
  30 C30            6.8011     3.0587     4.8564 C.ar    
  31 C31            5.6676     3.4881     4.1859 C.ar    
  32 C32            5.7900     4.2074     3.0112 C.ar    
  33 O33            6.6826     2.3557     6.0145 O.3     
  34 O34            9.1776     2.9282     4.9963 O.3     
  35 C35           10.4374     3.2609     4.4096 C.3     
  36 H36           -2.4704     3.3409     2.2706 H       
  37 H37            1.0620     5.4189     3.4905 H       
  38 H38            5.4607     2.6025     0.2570 H       
  39 H39            7.7864     3.5794    -0.0599 H       
  40 H40            4.1443     6.6775     0.2043 H       
  41 H41            2.9028     2.3421    -2.2115 H       
  42 H42           -1.8708     2.7643    -0.6041 H       
  43 H43           -1.3612     4.3392     4.8625 H       
  44 H44            8.1581     5.7241     1.1645 H       
  45 H45            5.6861     6.6017     2.1566 H       
  46 H46            6.3158     8.5264     0.8909 H       
  47 H47            7.8340     7.6071     0.6897 H       
  48 H48            5.4949     6.5000    -3.1601 H       
  49 H49            9.1541     4.2895     2.7603 H       
  50 H50            4.6883     3.2650     4.5829 H       
  51 H51            4.9055     4.5454     2.4917 H       
  52 H52            6.6627     2.9067     6.8088 H       
  53 H53           10.5301     4.3446     4.3381 H       
  54 H54           11.2424     2.8675     5.0304 H       
  55 H55           10.5007     2.8243     3.4129 H       
@<TRIPOS>BOND
   1    1    2 ar
   2    1    6 ar
   3    1   19 1
   4    2    3 ar
   5    2   36 1
   6    3    4 ar
   7    3   20 1
   8    4    5 ar
   9    4   37 1
  10    5    7 1
  11    5    6 ar
  12    6   10 1
  13    7    8 1
  14    8    9 2
  15    8   11 1
  16    9   10 1
  17    9   18 1
  18   10   17 2
  19   11   12 2
  20   11   16 1
  21   12   13 1
  22   12   38 1
  23   13   14 1
  24   13   21 1
  25   13   39 1
  26   14   15 1
  27   14   22 2
  28   15   25 1
  29   15   16 1
  30   15   26 1
  31   16   23 1
  32   16   40 1
  33   18   41 1
  34   19   42 1
  35   20   43 1
  36   21   27 1
  37   21   23 1
  38   21   44 1
  39   23   24 1
  40   23   45 1
  41   24   25 1
  42   24   46 1
  43   24   47 1
  44   26   48 1
  45   27   28 ar
  46   27   32 ar
  47   28   29 ar
  48   28   49 1
  49   29   30 ar
  50   29   34 1
  51   30   31 ar
  52   30   33 1
  53   31   32 ar
  54   31   50 1
  55   32   51 1
  56   33   52 1
  57   34   35 1
  58   35   53 1
  59   35   54 1
  60   35   55 1

#	End of record

