#	Name: ASD09740211
#	Creating user name:	WinNT
#	Creation time:	15. 06. 2019 21:22

#	Modifying user name:	WinNT
#	Modification time:	15. 06. 2019 21:22

#	Program:	/corina/corina34_cracker 3.40 0067  02.08.2006

@<TRIPOS>MOLECULE
ASD09740211
  36   38    0    0    0
SMALL
NO_CHARGES


@<TRIPOS>ATOM
   1 O1            -0.0144     1.2085     0.0087 O.3     
   2 N2             0.0021    -0.0041     0.0020 N.2     
   3 C3             1.2411     1.6827    -0.0008 C.2     
   4 N4             2.0453     0.6365    -0.0141 N.2     
   5 C5             1.2345    -0.4420    -0.0121 C.2     
   6 C6             1.6625    -1.8640    -0.0238 C.ar    
   7 C7             1.6456     3.1047     0.0026 C.ar    
   8 C8             0.7214    -2.8966    -0.0204 C.ar    
   9 C9             3.0167    -2.2054    -0.0445 C.ar    
  10 C10            3.3711    -3.5397    -0.0553 C.ar    
  11 N11            2.4510    -4.4844    -0.0468 N.ar    
  12 C12            1.1621    -4.2045    -0.0321 C.ar    
  13 C13            2.9987     3.4481    -0.0090 C.ar    
  14 C14            3.3727     4.7761    -0.0063 C.ar    
  15 C15            2.4110     5.7697     0.0083 C.ar    
  16 C16            1.0632     5.4379     0.0203 C.ar    
  17 C17            0.6767     4.1079     0.0114 C.ar    
  18 C18            2.8277     7.2179     0.0116 C.3     
  19 C19           -0.7534    -2.5869    -0.0036 C.3     
  20 O20            0.1223     6.4185     0.0350 O.3     
  21 C21           -1.2455     6.0051     0.0468 C.3     
  22 H22            3.7754    -1.4368    -0.0522 H       
  23 H23            4.4157    -3.8135    -0.0713 H       
  24 H24            0.4421    -5.0095    -0.0256 H       
  25 H25            3.7523     2.6746    -0.0196 H       
  26 H26            4.4198     5.0405    -0.0152 H       
  27 H27           -0.3716     3.8484     0.0208 H       
  28 H28            2.9181     7.5724    -1.0152 H       
  29 H29            2.0780     7.8105     0.5359 H       
  30 H30            3.7885     7.3184     0.5165 H       
  31 H31           -1.1193    -2.5062    -1.0272 H       
  32 H32           -1.2867    -3.3862     0.5109 H       
  33 H33           -0.9208    -1.6443     0.5175 H       
  34 H34           -1.8905     6.8837     0.0580 H       
  35 H35           -1.4538     5.4128    -0.8442 H       
  36 H36           -1.4356     5.4035     0.9356 H       
@<TRIPOS>BOND
   1    1    2 1
   2    1    3 1
   3    2    5 2
   4    3    4 2
   5    3    7 1
   6    4    5 1
   7    5    6 1
   8    6    8 ar
   9    6    9 ar
  10    7   13 ar
  11    7   17 ar
  12    8   19 1
  13    8   12 ar
  14    9   10 ar
  15    9   22 1
  16   10   11 ar
  17   10   23 1
  18   11   12 ar
  19   12   24 1
  20   13   14 ar
  21   13   25 1
  22   14   15 ar
  23   14   26 1
  24   15   16 ar
  25   15   18 1
  26   16   17 ar
  27   16   20 1
  28   17   27 1
  29   18   28 1
  30   18   29 1
  31   18   30 1
  32   19   31 1
  33   19   32 1
  34   19   33 1
  35   20   21 1
  36   21   34 1
  37   21   35 1
  38   21   36 1

#	End of record

