#	Name: ASD07301022
#	Creating user name:	WinNT
#	Creation time:	15. 06. 2019 21:10

#	Modifying user name:	WinNT
#	Modification time:	15. 06. 2019 21:10

#	Program:	/corina/corina34_cracker 3.40 0067  02.08.2006

@<TRIPOS>MOLECULE
ASD07301022
  34   35    0    0    0
SMALL
NO_CHARGES


@<TRIPOS>ATOM
   1 C1            -0.0179     1.4664     0.0101 C.2     
   2 C2             0.0021    -0.0041     0.0020 C.2     
   3 C3             1.2775    -0.6366    -0.0136 C.2     
   4 C4             2.3787     0.1587    -0.0198 C.2     
   5 N5             2.2597     1.5100    -0.0110 N.pl3   
   6 N6             1.1314     2.1178     0.0026 N.2     
   7 O7            -1.0313    -0.6548     0.0088 O.2     
   8 O8             1.3895    -1.9914    -0.0215 O.3     
   9 C9             2.7119    -2.5330    -0.0370 C.3     
  10 C10            3.4279     2.2793    -0.0175 C.ar    
  11 C11            3.6390     3.2342     0.9732 C.ar    
  12 C12            4.7939     3.9931     0.9647 C.ar    
  13 C13            5.7417     3.8028    -0.0309 C.ar    
  14 C14            5.5309     2.8511    -1.0188 C.ar    
  15 C15            4.3811     2.0873    -1.0093 C.ar    
  16 O16            6.8772     4.5494    -0.0387 O.3     
  17 C17            7.8097     4.3009    -1.0927 C.3     
  18 F18            7.1941     4.5400    -2.3260 F       
  19 F19            8.9124     5.1500    -0.9495 F       
  20 F20            8.2356     2.9696    -1.0343 F       
  21 F21            2.7155     3.4190     1.9418 F       
  22 C22           -1.2915     2.1970     0.0201 C.2     
  23 O23           -2.3403     1.5876     0.0218 O.2     
  24 C24           -1.2957     3.7040     0.0283 C.3     
  25 H25            3.3609    -0.2902    -0.0316 H       
  26 H26            3.2515    -2.1996     0.8494 H       
  27 H27            2.6586    -3.6217    -0.0420 H       
  28 H28            3.2342    -2.1907    -0.9304 H       
  29 H29            4.9586     4.7344     1.7326 H       
  30 H30            6.2693     2.7048    -1.7933 H       
  31 H31            4.2205     1.3437    -1.7759 H       
  32 H32           -1.3016     4.0729    -0.9973 H       
  33 H33           -2.1842     4.0621     0.5484 H       
  34 H34           -0.4043     4.0670     0.5399 H       
@<TRIPOS>BOND
   1    1    2 1
   2    1    6 2
   3    1   22 1
   4    2    3 1
   5    2    7 2
   6    3    4 2
   7    3    8 1
   8    4    5 1
   9    4   25 1
  10    5    6 1
  11    5   10 1
  12    8    9 1
  13    9   26 1
  14    9   27 1
  15    9   28 1
  16   10   11 ar
  17   10   15 ar
  18   11   12 ar
  19   11   21 1
  20   12   13 ar
  21   12   29 1
  22   13   14 ar
  23   13   16 1
  24   14   15 ar
  25   14   30 1
  26   15   31 1
  27   16   17 1
  28   17   18 1
  29   17   19 1
  30   17   20 1
  31   22   23 2
  32   22   24 1
  33   24   32 1
  34   24   33 1
  35   24   34 1

#	End of record

