#	Name: ASD08150623
#	Creating user name:	WinNT
#	Creation time:	15. 06. 2019 21:16

#	Modifying user name:	WinNT
#	Modification time:	15. 06. 2019 21:16

#	Program:	/corina/corina34_cracker 3.40 0067  02.08.2006

@<TRIPOS>MOLECULE
ASD08150623
  62   67    0    0    0
SMALL
NO_CHARGES


@<TRIPOS>ATOM
   1 N1             1.4887     3.8476     0.9101 N.am    
   2 C2             2.0596     3.4027     2.0463 C.2     
   3 C3             3.2673     2.6766     2.0132 C.2     
   4 C4             3.8747     2.4148     0.8278 C.2     
   5 C5             3.2767     2.8809    -0.3695 C.ar    
   6 C6             3.8648     2.6362    -1.6253 C.ar    
   7 N7             3.3110     3.0674    -2.7283 N.ar    
   8 C8             2.1620     3.7606    -2.7309 C.ar    
   9 C9             1.5001     4.0526    -1.5131 C.ar    
  10 C10            2.0740     3.6009    -0.3015 C.ar    
  11 C11            0.3037     4.7765    -1.5268 C.ar    
  12 C12           -0.2224     5.2015    -2.7352 C.ar    
  13 C13            0.4379     4.9090    -3.9362 C.ar    
  14 C14            1.6020     4.2054    -3.9396 C.ar    
  15 O15            1.5245     3.6315     3.1178 O.2     
  16 C16           -1.4922     5.9701    -2.7586 C.2     
  17 C17            0.2851     4.5624     0.9692 C.ar    
  18 C18            0.2975     5.9499     0.9025 C.ar    
  19 C19           -0.8879     6.6541     0.9607 C.ar    
  20 C20           -2.0938     5.9753     1.0856 C.ar    
  21 C21           -2.1060     4.5879     1.1518 C.ar    
  22 C22           -0.9204     3.8836     1.0887 C.ar    
  23 N23           -3.2946     6.6886     1.1451 N.3     
  24 C24           -1.6966     7.1711    -3.3732 C.2     
  25 C25           -3.9384     6.7465    -0.1741 C.3     
  26 C26           -5.3292     7.3742    -0.0329 C.3     
  27 N27           -5.1899     8.6702     0.6485 N.am    
  28 C28           -4.4365     8.7151     1.9109 C.3     
  29 C29           -3.0809     8.0346     1.6932 C.3     
  30 C30           -5.7385     9.7868     0.1302 C.2     
  31 C31           -5.5835    11.1043     0.8452 C.3     
  32 O32           -6.3569     9.7313    -0.9116 O.2     
  33 N33           -2.9797     7.5259    -3.1586 N.pl3   
  34 N34           -3.5887     6.5239    -2.3934 N.2     
  35 C35           -2.7070     5.5893    -2.1556 C.2     
  36 C36           -3.4137     3.8515     1.2878 C.3     
  37 F37           -3.1637     2.4876     1.4737 F       
  38 F38           -4.1178     4.3508     2.3888 F       
  39 F39           -4.1737     4.0324     0.1272 F       
  40 H40            3.7111     2.3279     2.9340 H       
  41 H41            4.8005     1.8595     0.7976 H       
  42 H42            4.7906     2.0826    -1.6783 H       
  43 H43           -0.2063     5.0022    -0.6019 H       
  44 H44            0.0164     5.2461    -4.8717 H       
  45 H45            2.0977     3.9892    -4.8744 H       
  46 H46            1.2348     6.4775     0.8055 H       
  47 H47           -0.8782     7.7329     0.9096 H       
  48 H48           -0.9301     2.8047     1.1364 H       
  49 H49           -0.9634     7.7356    -3.9300 H       
  50 H50           -3.3327     7.3522    -0.8481 H       
  51 H51           -4.0337     5.7382    -0.5769 H       
  52 H52           -5.7649     7.5249    -1.0206 H       
  53 H53           -5.9692     6.7176     0.5564 H       
  54 H54           -4.2820     9.7523     2.2083 H       
  55 H55           -4.9907     8.1874     2.6871 H       
  56 H56           -2.5541     7.9605     2.6446 H       
  57 H57           -2.4871     8.6224     0.9931 H       
  58 H58           -4.6807    11.6042     0.4941 H       
  59 H59           -6.4499    11.7330     0.6402 H       
  60 H60           -5.5077    10.9287     1.9182 H       
  61 H61           -3.4070     8.3357    -3.4788 H       
  62 H62           -2.8780     4.6853    -1.5899 H       
@<TRIPOS>BOND
   1    1    2 am
   2    1   10 1
   3    1   17 1
   4    2    3 1
   5    2   15 2
   6    3    4 2
   7    3   40 1
   8    4    5 1
   9    4   41 1
  10    5    6 ar
  11    5   10 ar
  12    6    7 ar
  13    6   42 1
  14    7    8 ar
  15    8    9 ar
  16    8   14 ar
  17    9   10 ar
  18    9   11 ar
  19   11   12 ar
  20   11   43 1
  21   12   13 ar
  22   12   16 1
  23   13   14 ar
  24   13   44 1
  25   14   45 1
  26   16   24 2
  27   16   35 1
  28   17   18 ar
  29   17   22 ar
  30   18   19 ar
  31   18   46 1
  32   19   20 ar
  33   19   47 1
  34   20   21 ar
  35   20   23 1
  36   21   22 ar
  37   21   36 1
  38   22   48 1
  39   23   25 1
  40   23   29 1
  41   24   33 1
  42   24   49 1
  43   25   26 1
  44   25   50 1
  45   25   51 1
  46   26   27 1
  47   26   52 1
  48   26   53 1
  49   27   28 1
  50   27   30 am
  51   28   29 1
  52   28   54 1
  53   28   55 1
  54   29   56 1
  55   29   57 1
  56   30   31 1
  57   30   32 2
  58   31   58 1
  59   31   59 1
  60   31   60 1
  61   33   34 1
  62   33   61 1
  63   34   35 2
  64   35   62 1
  65   36   37 1
  66   36   38 1
  67   36   39 1

#	End of record

