#	Name: ASD00461036
#	Creating user name:	WinNT
#	Creation time:	15. 06. 2019 18:36

#	Modifying user name:	WinNT
#	Modification time:	15. 06. 2019 18:36

#	Program:	/corina/corina34_cracker 3.40 0067  02.08.2006

@<TRIPOS>MOLECULE
ASD00461036
  50   52    0    0    0
SMALL
NO_CHARGES


@<TRIPOS>ATOM
   1 C1            -0.0167     1.3781     0.0096 C.ar    
   2 C2             0.0021    -0.0041     0.0020 C.ar    
   3 C3             1.1709     2.0855     0.0021 C.ar    
   4 C4             1.2084    -0.6789    -0.0132 C.ar    
   5 C5             2.3773     1.4107    -0.0136 C.ar    
   6 C6             1.1505     3.5924     0.0104 C.3     
   7 C7             2.3960     0.0285    -0.0212 C.ar    
   8 N8             2.1962     4.1012    -0.8871 N.3     
   9 C9             1.8635     5.4469    -1.3734 C.3     
  10 C10            2.9565     5.9346    -2.2891 C.ar    
  11 C11            2.8846     5.6771    -3.6469 C.ar    
  12 C12            4.0228     6.6414    -1.7713 C.ar    
  13 C13            3.8820     6.1202    -4.4944 C.ar    
  14 C14            5.0309     7.0977    -2.6175 C.ar    
  15 C15            4.9612     6.8262    -3.9871 C.ar    
  16 C16            6.1791     7.8579    -2.0661 C.ar    
  17 C17            5.9580     8.9428    -1.2198 C.ar    
  18 C18            7.4831     7.4863    -2.3880 C.ar    
  19 C19            7.0301     9.6464    -0.7097 C.ar    
  20 C20            8.5477     8.1971    -1.8721 C.ar    
  21 C21            8.3222     9.2769    -1.0375 C.ar    
  22 C22            9.4887    10.0495    -0.4778 C.3     
  23 H23            3.0974     4.0933    -0.4335 H       
  24 F24            9.8836     9.4819     0.7384 F       
  25 F25           10.5553    10.0037    -1.3819 F       
  26 F26            9.1102    11.3803    -0.2702 F       
  27 H27            0.9205     5.4132    -1.9191 H       
  28 H28            1.7690     6.1263    -0.5263 H       
  29 O29            5.9398     7.2667    -4.8200 O.3     
  30 C30            5.8017     6.9516    -6.2070 C.3     
  31 F31            4.6142     7.5070    -6.6954 F       
  32 F32            6.8880     7.4770    -6.9149 F       
  33 F33            5.7678     5.5624    -6.3685 F       
  34 C34            1.4076     4.0980     1.4314 C.3     
  35 H35           -0.9592     1.9054     0.0170 H       
  36 H36           -0.9258    -0.5567     0.0083 H       
  37 H37            1.2231    -1.7588    -0.0184 H       
  38 H38            3.3051     1.9634    -0.0195 H       
  39 H39            0.1767     3.9444    -0.3299 H       
  40 H40            3.3385    -0.4987    -0.0331 H       
  41 H41            2.0453     5.1269    -4.0459 H       
  42 H42            4.0754     6.8408    -0.7112 H       
  43 H43            3.8206     5.9158    -5.5531 H       
  44 H44            4.9496     9.2326    -0.9638 H       
  45 H45            7.6603     6.6434    -3.0395 H       
  46 H46            6.8599    10.4874    -0.0538 H       
  47 H47            9.5587     7.9099    -2.1206 H       
  48 H48            1.3929     5.1879     1.4374 H       
  49 H49            0.6318     3.7205     2.0973 H       
  50 H50            2.3815     3.7460     1.7716 H       
@<TRIPOS>BOND
   1    1    2 ar
   2    1    3 ar
   3    1   35 1
   4    2    4 ar
   5    2   36 1
   6    3    6 1
   7    3    5 ar
   8    4    7 ar
   9    4   37 1
  10    5    7 ar
  11    5   38 1
  12    6    8 1
  13    6   34 1
  14    6   39 1
  15    7   40 1
  16    8    9 1
  17    8   23 1
  18    9   27 1
  19    9   28 1
  20    9   10 1
  21   10   11 ar
  22   10   12 ar
  23   11   13 ar
  24   11   41 1
  25   12   14 ar
  26   12   42 1
  27   13   15 ar
  28   13   43 1
  29   14   16 1
  30   14   15 ar
  31   15   29 1
  32   16   17 ar
  33   16   18 ar
  34   17   19 ar
  35   17   44 1
  36   18   20 ar
  37   18   45 1
  38   19   21 ar
  39   19   46 1
  40   20   21 ar
  41   20   47 1
  42   21   22 1
  43   22   24 1
  44   22   25 1
  45   22   26 1
  46   29   30 1
  47   30   31 1
  48   30   32 1
  49   30   33 1
  50   34   48 1
  51   34   49 1
  52   34   50 1

#	End of record

