#	Name: ASD01840395
#	Creating user name:	WinNT
#	Creation time:	15. 06. 2019 19:37

#	Modifying user name:	WinNT
#	Modification time:	15. 06. 2019 19:37

#	Program:	/corina/corina34_cracker 3.40 0067  02.08.2006

@<TRIPOS>MOLECULE
ASD01840395
  50   53    0    0    0
SMALL
NO_CHARGES


@<TRIPOS>ATOM
   1 C1             0.3966     1.5818    -1.5285 C.ar    
   2 C2             0.5696     0.3036    -2.0111 C.ar    
   3 N3             1.6686    -0.3732    -1.7240 N.ar    
   4 N4             2.6082     0.1103    -1.0005 N.ar    
   5 C5             1.4224     2.1344    -0.7275 C.ar    
   6 C6             1.5156     3.4351    -0.0909 C.2     
   7 C7             2.5485     1.3386    -0.4799 C.ar    
   8 S8             3.6933     2.2121     0.5284 S.3     
   9 C9             2.6601     3.6256     0.6112 C.2     
  10 C10           -0.8466     2.3705    -1.8498 C.3     
  11 C11           -0.4975    -0.3260    -2.8690 C.3     
  12 N12            0.5217     4.3991    -0.1921 N.pl3   
  13 C13            2.9892     4.8493     1.3407 C.2     
  14 O14            2.2100     5.7848     1.3432 O.2     
  15 N15            4.1553     4.9418     2.0102 N.am    
  16 C16            5.1831     3.8936     2.0899 C.3     
  17 C17            6.3218     4.4350     2.9797 C.3     
  18 C18            5.6171     5.5379     3.8130 C.3     
  19 C19            4.6142     6.1132     2.7787 C.3     
  20 N20            4.9182     4.9606     4.9639 N.am    
  21 C21            4.6827     5.7137     6.0565 C.2     
  22 O22            5.0501     6.8716     6.0871 O.2     
  23 O23            4.0402     5.1829     7.1145 O.3     
  24 C24            3.9278     5.9621     8.2227 C.ar    
  25 C25            2.9813     6.9753     8.2666 C.ar    
  26 C26            2.8687     7.7655     9.3941 C.ar    
  27 C27            3.6988     7.5474    10.4782 C.ar    
  28 C28            4.6432     6.5384    10.4368 C.ar    
  29 C29            4.7555     5.7416     9.3139 C.ar    
  30 H30           -1.5751     2.2428    -1.0491 H       
  31 H31           -0.5926     3.4263    -1.9449 H       
  32 H32           -1.2714     2.0131    -2.7879 H       
  33 H33           -0.3021    -0.0989    -3.9170 H       
  34 H34           -0.4900    -1.4063    -2.7238 H       
  35 H35           -1.4723     0.0718    -2.5867 H       
  36 H36           -0.3821     4.1407    -0.4316 H       
  37 H37            0.7309     5.3311    -0.0232 H       
  38 H38            4.7604     2.9932     2.5357 H       
  39 H39            5.5648     3.6722     1.0932 H       
  40 H40            6.7103     3.6503     3.6288 H       
  41 H41            7.1179     4.8620     2.3699 H       
  42 H42            6.3275     6.3007     4.1318 H       
  43 H43            5.1110     6.8271     2.1216 H       
  44 H44            3.7742     6.5858     3.2877 H       
  45 H45            4.6249     4.0363     4.9395 H       
  46 H46            2.3332     7.1465     7.4198 H       
  47 H47            2.1320     8.5544     9.4288 H       
  48 H48            3.6095     8.1664    11.3587 H       
  49 H49            5.2909     6.3705    11.2845 H       
  50 H50            5.4902     4.9505     9.2838 H       
@<TRIPOS>BOND
   1    1    2 ar
   2    1    5 ar
   3    1   10 1
   4    2   11 1
   5    2    3 ar
   6    3    4 ar
   7    4    7 ar
   8    5    7 ar
   9    5    6 1
  10    6    9 2
  11    6   12 1
  12    7    8 1
  13    8    9 1
  14    9   13 1
  15   10   30 1
  16   10   31 1
  17   10   32 1
  18   11   33 1
  19   11   34 1
  20   11   35 1
  21   12   36 1
  22   12   37 1
  23   13   14 2
  24   13   15 am
  25   15   16 1
  26   15   19 1
  27   16   17 1
  28   16   38 1
  29   16   39 1
  30   17   18 1
  31   17   40 1
  32   17   41 1
  33   18   19 1
  34   18   20 1
  35   18   42 1
  36   19   43 1
  37   19   44 1
  38   20   21 am
  39   20   45 1
  40   21   22 2
  41   21   23 1
  42   23   24 1
  43   24   25 ar
  44   24   29 ar
  45   25   26 ar
  46   25   46 1
  47   26   27 ar
  48   26   47 1
  49   27   28 ar
  50   27   48 1
  51   28   29 ar
  52   28   49 1
  53   29   50 1

#	End of record

