#	Name: ASD03091053
#	Creating user name:	WinNT
#	Creation time:	15. 06. 2019 20:30

#	Modifying user name:	WinNT
#	Modification time:	15. 06. 2019 20:30

#	Program:	/corina/corina34_cracker 3.40 0067  02.08.2006

@<TRIPOS>MOLECULE
ASD03091053
  53   56    0    0    0
SMALL
NO_CHARGES


@<TRIPOS>ATOM
   1 C1             0.1171     2.1991    -1.1525 C.2     
   2 C2            -0.1342     0.7567    -0.9459 C.ar    
   3 C3             0.9264    -0.1057    -0.6644 C.ar    
   4 C4             0.6857    -1.4527    -0.4717 C.ar    
   5 C5            -0.6055    -1.9476    -0.5579 C.ar    
   6 C6            -1.6617    -1.0963    -0.8375 C.ar    
   7 C7            -1.4332     0.2539    -1.0259 C.ar    
   8 O8             1.2223     2.6596    -0.9426 O.2     
   9 N9            -0.8777     3.0022    -1.5788 N.am    
  10 F10           -2.9183    -1.5855    -0.9206 F       
  11 F11            1.7114    -2.2887    -0.1991 F       
  12 N12            4.3115    -1.0025    -0.7132 N.3     
  13 C13            3.2481    -0.3665    -1.5032 C.3     
  14 C14            2.3315     0.4310    -0.5712 C.3     
  15 C15            2.8422     0.2872     0.8681 C.3     
  16 C16            4.2822     0.8118     0.9309 C.3     
  17 C17            5.1452     0.0043    -0.0430 C.3     
  18 C18            3.7493    -1.9529     0.2564 C.3     
  19 C19            2.8471    -1.2011     1.2391 C.3     
  20 C20            2.4330    -1.4431    -2.2224 C.3     
  21 C21            4.0120    -2.6756    -3.7321 C.ar    
  22 C22            3.0364    -1.7086    -3.5776 C.ar    
  23 C23            2.6198    -0.9864    -4.6851 C.ar    
  24 C24            3.2026    -1.2650    -5.9122 C.ar    
  25 C25            4.1724    -2.2463    -5.9897 C.ar    
  26 N26            4.5446    -2.9134    -4.9146 N.ar    
  27 P27           -1.9237     5.2059    -2.2868 P.3     
  28 O28           -3.0104     5.0906    -1.2887 O.2     
  29 O29           -0.6370     4.3835    -1.7767 O.3     
  30 O30           -2.4218     4.6040    -3.6945 O.3     
  31 O31           -1.5301     6.7557    -2.4749 O.3     
  32 H32           -0.7891    -3.0011    -0.4070 H       
  33 H33           -2.2581     0.9176    -1.2394 H       
  34 H34           -1.7586     2.6339    -1.7501 H       
  35 H35            3.6929     0.3048    -2.2378 H       
  36 H36            2.3428     1.4821    -0.8594 H       
  37 H37            2.2070     0.8532     1.5495 H       
  38 H38            4.3001     1.8644     0.6484 H       
  39 H39            4.6690     0.6967     1.9434 H       
  40 H40            5.9449    -0.4928     0.5061 H       
  41 H41            5.5764     0.6735    -0.7876 H       
  42 H42            3.1645    -2.7069    -0.2704 H       
  43 H43            4.5590    -2.4364     0.8030 H       
  44 H44            3.2291    -1.3236     2.2526 H       
  45 H45            1.8329    -1.5959     1.1790 H       
  46 H46            2.4436    -2.3606    -1.6340 H       
  47 H47            1.4052    -1.1007    -2.3431 H       
  48 H48            4.3453    -3.2395    -2.8734 H       
  49 H49            1.8591    -0.2251    -4.5945 H       
  50 H50            2.9021    -0.7222    -6.7962 H       
  51 H51            4.6312    -2.4693    -6.9416 H       
  52 H52           -1.7589     4.6468    -4.3972 H       
  53 H53           -2.2591     7.3122    -2.7812 H       
@<TRIPOS>BOND
   1    1    2 1
   2    1    8 2
   3    1    9 am
   4    2    3 ar
   5    2    7 ar
   6    3    4 ar
   7    3   14 1
   8    4    5 ar
   9    4   11 1
  10    5    6 ar
  11    5   32 1
  12    6    7 ar
  13    6   10 1
  14    7   33 1
  15    9   29 1
  16    9   34 1
  17   12   17 1
  18   12   18 1
  19   12   13 1
  20   13   14 1
  21   13   20 1
  22   13   35 1
  23   14   15 1
  24   14   36 1
  25   15   16 1
  26   15   19 1
  27   15   37 1
  28   16   17 1
  29   16   38 1
  30   16   39 1
  31   17   40 1
  32   17   41 1
  33   18   19 1
  34   18   42 1
  35   18   43 1
  36   19   44 1
  37   19   45 1
  38   20   22 1
  39   20   46 1
  40   20   47 1
  41   21   22 ar
  42   21   26 ar
  43   21   48 1
  44   22   23 ar
  45   23   24 ar
  46   23   49 1
  47   24   25 ar
  48   24   50 1
  49   25   26 ar
  50   25   51 1
  51   27   28 2
  52   27   29 1
  53   27   30 1
  54   27   31 1
  55   30   52 1
  56   31   53 1

#	End of record

