#	Name: ASD02560537
#	Creating user name:	WinNT
#	Creation time:	15. 06. 2019 20:25

#	Modifying user name:	WinNT
#	Modification time:	15. 06. 2019 20:25

#	Program:	/corina/corina34_cracker 3.40 0067  02.08.2006

@<TRIPOS>MOLECULE
ASD02560537
  54   57    0    0    0
SMALL
NO_CHARGES


@<TRIPOS>ATOM
   1 N1            -0.0228     1.2816    -0.0579 N.2     
   2 N2            -0.0040    -0.0033    -0.0528 N.2     
   3 C3             1.1943     1.7487    -0.0793 C.2     
   4 N4             2.0428     0.6728    -0.0883 N.pl3   
   5 C5             1.2360    -0.4331    -0.0708 C.2     
   6 S6             1.7625    -2.1146    -0.0721 S.3     
   7 C7             0.1556    -2.9471    -0.0430 C.3     
   8 C8             0.3632    -4.4398    -0.0400 C.2     
   9 O9             1.4868    -4.8958    -0.0560 O.2     
  10 N10           -0.7000    -5.2679    -0.0195 N.am    
  11 C11            3.4422     0.6991    -0.1112 C.ar    
  12 Br12           1.6953     3.5721    -0.0949 Br      
  13 C13            4.1561     0.7168     1.0667 C.ar    
  14 C14            5.5477     0.7425     1.0553 C.ar    
  15 C15            6.2409     0.7511    -0.1165 C.ar    
  16 C16            5.5502     0.7336    -1.3399 C.ar    
  17 C17            4.1337     0.7016    -1.3405 C.ar    
  18 C18            6.2389     0.7414    -2.5654 C.ar    
  19 C19            5.5381     0.7235    -3.7319 C.ar    
  20 C20            4.1448     0.6979    -3.7314 C.ar    
  21 C21            3.4449     0.6832    -2.5637 C.ar    
  22 C22            7.7476     0.7800    -0.1013 C.3     
  23 C23           -0.5133    -6.6447    -0.1340 C.ar    
  24 C24           -1.3576    -7.5185     0.5447 C.ar    
  25 C25           -1.1766    -8.8782     0.4337 C.ar    
  26 C26           -0.1429    -9.3816    -0.3621 C.ar    
  27 C27            0.7032    -8.5010    -1.0424 C.ar    
  28 C28            0.5129    -7.1421    -0.9309 C.ar    
  29 C29            0.0545   -10.8379    -0.4831 C.2     
  30 O30           -0.6816   -11.6020     0.1091 O.2     
  31 O31            1.0511   -11.3213    -1.2505 O.3     
  32 C32           -2.4710    -6.9750     1.4026 C.3     
  33 C33            8.2313     2.2260    -0.2275 C.3     
  34 H34           -0.3891    -2.6542     0.8546 H       
  35 H35           -0.4175    -2.6617    -0.9251 H       
  36 H36           -1.5949    -4.9060     0.0748 H       
  37 H37            3.6300     0.7111     2.0099 H       
  38 H38            6.0864     0.7561     1.9913 H       
  39 H39            7.3186     0.7619    -2.5811 H       
  40 H40            6.0697     0.7295    -4.6720 H       
  41 H41            3.6125     0.6848    -4.6710 H       
  42 H42            2.3652     0.6631    -2.5784 H       
  43 H43            8.1097     0.3562     0.8354 H       
  44 H44            8.1306     0.1945    -0.9371 H       
  45 H45           -1.8319    -9.5557     0.9610 H       
  46 H46            1.5028    -8.8863    -1.6576 H       
  47 H47            1.1662    -6.4611    -1.4562 H       
  48 H48            1.1410   -12.2829    -1.2988 H       
  49 H49           -3.3720    -6.8617     0.7997 H       
  50 H50           -2.6674    -7.6650     2.2232 H       
  51 H51           -2.1791    -6.0051     1.8054 H       
  52 H52            9.3210     2.2469    -0.2166 H       
  53 H53            7.8691     2.6498    -1.1642 H       
  54 H54            7.8482     2.8115     0.6082 H       
@<TRIPOS>BOND
   1    1    2 1
   2    1    3 2
   3    2    5 2
   4    3    4 1
   5    3   12 1
   6    4    5 1
   7    4   11 1
   8    5    6 1
   9    6    7 1
  10    7    8 1
  11    7   34 1
  12    7   35 1
  13    8    9 2
  14    8   10 am
  15   10   23 1
  16   10   36 1
  17   11   13 ar
  18   11   17 ar
  19   13   14 ar
  20   13   37 1
  21   14   15 ar
  22   14   38 1
  23   15   16 ar
  24   15   22 1
  25   16   17 ar
  26   16   18 ar
  27   17   21 ar
  28   18   19 ar
  29   18   39 1
  30   19   20 ar
  31   19   40 1
  32   20   21 ar
  33   20   41 1
  34   21   42 1
  35   22   33 1
  36   22   43 1
  37   22   44 1
  38   23   24 ar
  39   23   28 ar
  40   24   25 ar
  41   24   32 1
  42   25   26 ar
  43   25   45 1
  44   26   27 ar
  45   26   29 1
  46   27   28 ar
  47   27   46 1
  48   28   47 1
  49   29   30 2
  50   29   31 1
  51   31   48 1
  52   32   49 1
  53   32   50 1
  54   32   51 1
  55   33   52 1
  56   33   53 1
  57   33   54 1

#	End of record

