#	Name: ASD01911420
#	Creating user name:	WinNT
#	Creation time:	15. 06. 2019 19:57

#	Modifying user name:	WinNT
#	Modification time:	15. 06. 2019 19:57

#	Program:	/corina/corina34_cracker 3.40 0067  02.08.2006

@<TRIPOS>MOLECULE
ASD01911420
  29   31    0    0    0
SMALL
NO_CHARGES


@<TRIPOS>ATOM
   1 C1            -0.0167     1.3821     0.0096 C.ar    
   2 C2             0.0021    -0.0041     0.0020 C.ar    
   3 C3             1.2086    -0.6867    -0.0132 C.ar    
   4 C4             2.3980     0.0101    -0.0209 C.ar    
   5 C5             2.3858     1.4079    -0.0133 C.ar    
   6 C6             1.1659     2.0904     0.0022 C.ar    
   7 C7             3.6178     2.1377    -0.0211 C.1     
   8 C8             4.6279     2.7361    -0.0276 C.1     
   9 C9             5.8600     3.4659    -0.0355 C.ar    
  10 C10            5.8463     4.8663    -0.0279 C.ar    
  11 C11            7.0210     5.5552    -0.0355 C.ar    
  12 C12            8.2437     4.8745    -0.0509 C.ar    
  13 C13            8.2563     3.4754    -0.0585 C.ar    
  14 C14            7.0808     2.7813    -0.0451 C.ar    
  15 C15            7.3531     7.0269    -0.0308 C.3     
  16 N16            8.8176     7.1165    -0.0444 N.am    
  17 C17            9.3274     5.8731    -0.0560 C.2     
  18 O18           10.5143     5.6095    -0.0688 O.2     
  19 F19           -1.1603    -0.6926     0.0099 F       
  20 H20           -0.9599     1.9082     0.0170 H       
  21 H21            1.2167    -1.7666    -0.0187 H       
  22 H22            3.3373    -0.5228    -0.0324 H       
  23 H23            1.1499     3.1703     0.0077 H       
  24 H24            4.9066     5.3985    -0.0163 H       
  25 H25            9.1966     2.9442    -0.0708 H       
  26 H26            7.0928     1.7014    -0.0507 H       
  27 H27            6.9401     7.5070    -0.9179 H       
  28 H28            6.9573     7.4974     0.8692 H       
  29 H29            9.3330     7.9382    -0.0454 H       
@<TRIPOS>BOND
   1    1    2 ar
   2    1    6 ar
   3    1   20 1
   4    2    3 ar
   5    2   19 1
   6    3    4 ar
   7    3   21 1
   8    4    5 ar
   9    4   22 1
  10    5    6 ar
  11    5    7 1
  12    6   23 1
  13    7    8 3
  14    8    9 1
  15    9   10 ar
  16    9   14 ar
  17   10   11 ar
  18   10   24 1
  19   11   12 ar
  20   11   15 1
  21   12   13 ar
  22   12   17 1
  23   13   14 ar
  24   13   25 1
  25   14   26 1
  26   15   16 1
  27   15   27 1
  28   15   28 1
  29   16   17 am
  30   16   29 1
  31   17   18 2

#	End of record

