#	Name: ASD01411210
#	Creating user name:	WinNT
#	Creation time:	15. 06. 2019 19:19

#	Modifying user name:	WinNT
#	Modification time:	15. 06. 2019 19:19

#	Program:	/corina/corina34_cracker 3.40 0067  02.08.2006

@<TRIPOS>MOLECULE
ASD01411210
  52   55    0    0    0
SMALL
NO_CHARGES


@<TRIPOS>ATOM
   1 S1             0.6893     1.2319     2.7712 S.o2    
   2 N2             0.5077    -0.1953     1.9684 N.am    
   3 C3             1.4650    -0.9758     1.6593 C.2     
   4 N4             2.7790    -0.7574     1.9868 N.pl3   
   5 C5             3.1549     0.1008     3.1047 C.3     
   6 C6             2.4774     1.4638     2.9491 C.3     
   7 C7             1.1904    -2.2560     0.8869 C.3     
   8 C8             2.1570    -3.3208     1.4115 C.3     
   9 C9             3.6054    -2.9230     1.1610 C.3     
  10 C10            3.8006    -1.4116     1.1625 C.3     
  11 C11           -0.2321    -2.6976     1.1156 C.ar    
  12 C12           -1.0994    -2.8133     0.0450 C.ar    
  13 C13           -2.4040    -3.2174     0.2519 C.ar    
  14 C14           -2.8438    -3.5078     1.5356 C.ar    
  15 C15           -1.9712    -3.3913     2.6082 C.ar    
  16 C16           -0.6662    -2.9917     2.3951 C.ar    
  17 O17           -4.1267    -3.9051     1.7419 O.3     
  18 C18           -5.0553    -2.9494     2.0119 C.ar    
  19 C19           -6.3522    -3.3157     2.3420 C.ar    
  20 C20           -7.2953    -2.3449     2.6162 C.ar    
  21 C21           -6.9461    -1.0034     2.5615 C.ar    
  22 C22           -5.6498    -0.6371     2.2315 C.ar    
  23 C23           -4.7048    -1.6082     1.9628 C.ar    
  24 C24           -6.7317    -4.7729     2.4009 C.3     
  25 O25           -7.8749    -0.0476     2.8310 O.3     
  26 C26           -7.4459     1.3134     2.7560 C.3     
  27 O27            0.1500     2.2006     1.8824 O.2     
  28 O28            0.0918     0.9952     4.0385 O.2     
  29 H29            2.8353    -0.3594     4.0398 H       
  30 H30            4.2369     0.2317     3.1149 H       
  31 H31            2.8687     1.9652     2.0639 H       
  32 H32            2.6790     2.0726     3.8306 H       
  33 H33            1.3620    -2.0913    -0.1768 H       
  34 H34            2.0016    -3.4473     2.4829 H       
  35 H35            1.9541    -4.2662     0.9083 H       
  36 H36            4.2313    -3.3606     1.9386 H       
  37 H37            3.9180    -3.3184     0.1945 H       
  38 H38            3.7297    -1.0395     0.1405 H       
  39 H39            4.7877    -1.1776     1.5614 H       
  40 H40           -0.7567    -2.5871    -0.9539 H       
  41 H41           -3.0813    -3.3069    -0.5846 H       
  42 H42           -2.3111    -3.6163     3.6083 H       
  43 H43            0.0145    -2.9048     3.2290 H       
  44 H44           -8.3049    -2.6300     2.8728 H       
  45 H45           -5.3782     0.4073     2.1886 H       
  46 H46           -3.6942    -1.3231     1.7102 H       
  47 H47           -6.5624    -5.1520     3.4088 H       
  48 H48           -7.7848    -4.8849     2.1428 H       
  49 H49           -6.1224    -5.3359     1.6939 H       
  50 H50           -6.6388     1.4798     3.4695 H       
  51 H51           -7.0897     1.5271     1.7482 H       
  52 H52           -8.2819     1.9715     2.9930 H       
@<TRIPOS>BOND
   1    1    2 am
   2    1    6 1
   3    1   27 2
   4    1   28 2
   5    2    3 2
   6    3    4 1
   7    3    7 1
   8    4    5 1
   9    4   10 1
  10    5    6 1
  11    5   29 1
  12    5   30 1
  13    6   31 1
  14    6   32 1
  15    7    8 1
  16    7   11 1
  17    7   33 1
  18    8    9 1
  19    8   34 1
  20    8   35 1
  21    9   10 1
  22    9   36 1
  23    9   37 1
  24   10   38 1
  25   10   39 1
  26   11   12 ar
  27   11   16 ar
  28   12   13 ar
  29   12   40 1
  30   13   14 ar
  31   13   41 1
  32   14   15 ar
  33   14   17 1
  34   15   16 ar
  35   15   42 1
  36   16   43 1
  37   17   18 1
  38   18   19 ar
  39   18   23 ar
  40   19   20 ar
  41   19   24 1
  42   20   21 ar
  43   20   44 1
  44   21   22 ar
  45   21   25 1
  46   22   23 ar
  47   22   45 1
  48   23   46 1
  49   24   47 1
  50   24   48 1
  51   24   49 1
  52   25   26 1
  53   26   50 1
  54   26   51 1
  55   26   52 1

#	End of record

