#	Name: ASD03331392
#	Creating user name:	WinNT
#	Creation time:	15. 06. 2019 20:39

#	Modifying user name:	WinNT
#	Modification time:	15. 06. 2019 20:39

#	Program:	/corina/corina34_cracker 3.40 0067  02.08.2006

@<TRIPOS>MOLECULE
ASD03331392
  53   55    0    0    0
SMALL
NO_CHARGES


@<TRIPOS>ATOM
   1 N1             0.0470     1.3373     0.7562 N.2     
   2 N2             0.1124     0.0497     0.7180 N.pl3   
   3 C3             1.3416    -0.3340     0.3214 C.2     
   4 C4             2.0663     0.7957     0.1085 C.2     
   5 C5             1.2061     1.8652     0.3956 C.2     
   6 C6             3.5006     0.7895    -0.3427 C.3     
   7 C7             1.9101    -1.7152     0.1168 C.3     
   8 C8             3.1972    -1.5715    -0.7095 C.3     
   9 O9             4.0152    -0.5375    -0.1564 O.3     
  10 C10            1.5307     3.3032     0.3119 C.2     
  11 O11            2.6408     3.6566    -0.0359 O.2     
  12 N12            0.5964     4.2241     0.6210 N.am    
  13 C13            0.0164     6.4242     1.4649 C.2     
  14 C14            0.9185     5.6508     0.5380 C.3     
  15 C15            0.7123     6.1375    -0.8978 C.3     
  16 C16           -0.7533     5.9489    -1.2947 C.3     
  17 O17           -1.0891     6.0008     1.7282 O.2     
  18 N18            0.4383     7.5864     2.0013 N.am    
  19 C19           -0.4776     8.3954     2.8094 C.3     
  20 C20            1.0793     7.6198    -0.9916 C.3     
  21 C21            1.6046     5.3304    -1.8430 C.3     
  22 C22           -0.9381    -0.8202     1.0407 C.ar    
  23 C23           -0.6915    -1.9553     1.8016 C.ar    
  24 C24           -1.7293    -2.8121     2.1188 C.ar    
  25 C25           -3.0153    -2.5373     1.6769 C.ar    
  26 C26           -3.2609    -1.4061     0.9181 C.ar    
  27 C27           -2.2270    -0.5449     0.6048 C.ar    
  28 F28           -4.0289    -3.3749     1.9871 F       
  29 F29           -1.4910    -3.9171     2.8586 F       
  30 H30            3.5570     1.0625    -1.3965 H       
  31 H31            4.0780     1.4961     0.2535 H       
  32 H32            2.1390    -2.1674     1.0818 H       
  33 H33            1.1925    -2.3343    -0.4215 H       
  34 H34            3.7447    -2.5139    -0.6943 H       
  35 H35            2.9409    -1.3191    -1.7385 H       
  36 H36           -0.2893     3.9422     0.8985 H       
  37 H37            1.9575     5.8063     0.8286 H       
  38 H38           -1.3889     6.5238    -0.6214 H       
  39 H39           -0.9002     6.2955    -2.3176 H       
  40 H40           -1.0148     4.8928    -1.2279 H       
  41 H41            1.3484     7.8873     1.8523 H       
  42 H42           -1.3389     8.6813     2.2057 H       
  43 H43           -0.8129     7.8150     3.6690 H       
  44 H44            0.0377     9.2917     3.1549 H       
  45 H45            2.1363     7.7479    -0.7583 H       
  46 H46            0.8841     7.9793    -2.0020 H       
  47 H47            0.4790     8.1884    -0.2814 H       
  48 H48            1.3431     4.2743    -1.7762 H       
  49 H49            1.4576     5.6770    -2.8659 H       
  50 H50            2.6486     5.4647    -1.5602 H       
  51 H51            0.3099    -2.1689     2.1450 H       
  52 H52           -4.2626    -1.1939     0.5746 H       
  53 H53           -2.4207     0.3400     0.0167 H       
@<TRIPOS>BOND
   1    1    2 1
   2    1    5 2
   3    2    3 1
   4    2   22 1
   5    3    4 2
   6    3    7 1
   7    4    5 1
   8    4    6 1
   9    5   10 1
  10    6    9 1
  11    6   30 1
  12    6   31 1
  13    7    8 1
  14    7   32 1
  15    7   33 1
  16    8    9 1
  17    8   34 1
  18    8   35 1
  19   10   11 2
  20   10   12 am
  21   12   14 1
  22   12   36 1
  23   13   17 2
  24   13   18 am
  25   13   14 1
  26   14   15 1
  27   14   37 1
  28   15   16 1
  29   15   20 1
  30   15   21 1
  31   16   38 1
  32   16   39 1
  33   16   40 1
  34   18   19 1
  35   18   41 1
  36   19   42 1
  37   19   43 1
  38   19   44 1
  39   20   45 1
  40   20   46 1
  41   20   47 1
  42   21   48 1
  43   21   49 1
  44   21   50 1
  45   22   23 ar
  46   22   27 ar
  47   23   24 ar
  48   23   51 1
  49   24   25 ar
  50   24   29 1
  51   25   26 ar
  52   25   28 1
  53   26   27 ar
  54   26   52 1
  55   27   53 1

#	End of record

