#	Name: ASD03081145
#	Creating user name:	WinNT
#	Creation time:	15. 06. 2019 20:27

#	Modifying user name:	WinNT
#	Modification time:	15. 06. 2019 20:27

#	Program:	/corina/corina34_cracker 3.40 0067  02.08.2006

@<TRIPOS>MOLECULE
ASD03081145
  29   32    0    0    0
SMALL
NO_CHARGES


@<TRIPOS>ATOM
   1 O1            -0.0144     1.2085     0.0087 O.3     
   2 N2             0.0021    -0.0041     0.0020 N.2     
   3 C3             1.2348    -0.4422    -0.0121 C.2     
   4 N4             2.0458     0.6363    -0.0141 N.2     
   5 C5             1.2411     1.6828    -0.0008 C.2     
   6 C6             2.5032     5.7110     0.0098 C.ar    
   7 C7             1.1204     5.4365     0.0215 C.ar    
   8 C8             0.6808     4.1142     0.0182 C.ar    
   9 C9             1.6453     3.1039     0.0030 C.ar    
  10 C10            2.9999     3.4562    -0.0081 C.ar    
  11 N11            3.3796     4.7136    -0.0041 N.ar    
  12 N12            2.6400     7.0768     0.0214 N.pl3   
  13 C13            0.4460     6.7367     0.0356 C.2     
  14 C14            1.4074     7.6729     0.0399 C.2     
  15 C15            3.0154    -2.1957    -0.0376 C.ar    
  16 C16            1.6625    -1.8637    -0.0234 C.ar    
  17 C17            0.7147    -2.8901    -0.0194 C.ar    
  18 C18            1.1646    -4.1996    -0.0299 C.ar    
  19 C19            2.5249    -4.4471    -0.0438 C.ar    
  20 N20            3.3963    -3.4566    -0.0468 N.ar    
  21 H21           -0.3729     3.8778     0.0273 H       
  22 H22            3.7485     2.6779    -0.0198 H       
  23 H23            3.4865     7.5506     0.0174 H       
  24 H24           -0.6201     6.9088     0.0469 H       
  25 H25            1.2345     8.7389     0.0518 H       
  26 H26            3.7586    -1.4122    -0.0453 H       
  27 H27           -0.3422    -2.6679    -0.0081 H       
  28 H28            0.4608    -5.0187    -0.0269 H       
  29 H29            2.8796    -5.4672    -0.0520 H       
@<TRIPOS>BOND
   1    1    2 1
   2    1    5 1
   3    2    3 2
   4    3    4 1
   5    3   16 1
   6    4    5 2
   7    5    9 1
   8    6    7 ar
   9    6   11 ar
  10    6   12 1
  11    7    8 ar
  12    7   13 1
  13    8    9 ar
  14    8   21 1
  15    9   10 ar
  16   10   11 ar
  17   10   22 1
  18   12   14 1
  19   12   23 1
  20   13   14 2
  21   13   24 1
  22   14   25 1
  23   15   16 ar
  24   15   20 ar
  25   15   26 1
  26   16   17 ar
  27   17   18 ar
  28   17   27 1
  29   18   19 ar
  30   18   28 1
  31   19   20 ar
  32   19   29 1

#	End of record

