#	Name: ASD01870448
#	Creating user name:	WinNT
#	Creation time:	15. 06. 2019 19:39

#	Modifying user name:	WinNT
#	Modification time:	15. 06. 2019 19:39

#	Program:	/corina/corina34_cracker 3.40 0067  02.08.2006

@<TRIPOS>MOLECULE
ASD01870448
  28   30    0    0    0
SMALL
NO_CHARGES


@<TRIPOS>ATOM
   1 C1            -0.0162     1.3436     0.0094 C.2     
   2 N2             0.0021    -0.0041     0.0020 N.am    
   3 O3             1.0286     1.9659     0.0028 O.2     
   4 C4             1.2110    -0.6803    -0.0132 C.2     
   5 O5             2.4265    -0.1115    -0.0212 O.3     
   6 C6             3.3442    -1.1019    -0.0355 C.2     
   7 C7             2.6748    -2.2648    -0.0360 C.2     
   8 N8             1.3588    -1.9817    -0.0163 N.2     
   9 C9            -1.3020     2.0628     0.0194 C.2     
  10 N10           -2.5045     1.5285     0.0227 N.2     
  11 N11           -3.4268     2.4215     0.0325 N.pl3   
  12 C12           -2.8953     3.6848     0.0369 C.ar    
  13 C13           -1.4963     3.5190     0.0342 C.ar    
  14 C14           -0.6606     4.6314     0.0427 C.ar    
  15 C15           -1.2043     5.8858     0.0566 C.ar    
  16 C16           -2.5824     6.0574     0.0623 C.ar    
  17 C17           -3.4273     4.9700     0.0469 C.ar    
  18 C18            3.2869    -3.6419    -0.0496 C.3     
  19 F19            3.4887    -4.0756     1.2651 F       
  20 F20            2.4264    -4.5282    -0.7062 F       
  21 F21            4.5139    -3.6001    -0.7204 F       
  22 H22           -0.8313    -0.5005     0.0073 H       
  23 H23            4.4173    -0.9806    -0.0452 H       
  24 H24           -4.3772     2.2271     0.0361 H       
  25 H25            0.4119     4.5046     0.0387 H       
  26 H26           -0.5569     6.7502     0.0635 H       
  27 H27           -2.9962     7.0549     0.0732 H       
  28 H28           -4.4976     5.1143     0.0529 H       
@<TRIPOS>BOND
   1    1    2 am
   2    1    3 2
   3    1    9 1
   4    2    4 1
   5    2   22 1
   6    4    5 1
   7    4    8 2
   8    5    6 1
   9    6    7 2
  10    6   23 1
  11    7    8 1
  12    7   18 1
  13    9   10 2
  14    9   13 1
  15   10   11 1
  16   11   12 1
  17   11   24 1
  18   12   17 ar
  19   12   13 ar
  20   13   14 ar
  21   14   15 ar
  22   14   25 1
  23   15   16 ar
  24   15   26 1
  25   16   17 ar
  26   16   27 1
  27   17   28 1
  28   18   19 1
  29   18   20 1
  30   18   21 1

#	End of record

