#	Name: ASD03091251
#	Creating user name:	WinNT
#	Creation time:	15. 06. 2019 20:30

#	Modifying user name:	WinNT
#	Modification time:	15. 06. 2019 20:30

#	Program:	/corina/corina34_cracker 3.40 0067  02.08.2006

@<TRIPOS>MOLECULE
ASD03091251
  43   45    0    0    0
SMALL
NO_CHARGES


@<TRIPOS>ATOM
   1 C1             0.1768     0.8232    -0.3044 C.ar    
   2 C2             0.2759    -0.5470    -0.4578 C.ar    
   3 C3             1.5193    -1.1447    -0.5448 C.ar    
   4 C4             2.6637    -0.3720    -0.4789 C.ar    
   5 C5             2.5646     0.9983    -0.3265 C.ar    
   6 C6             1.3212     1.5958    -0.2380 C.ar    
   7 C7             3.8122     1.8405    -0.2537 C.3     
   8 C8             3.9979     2.9218    -1.3201 C.3     
   9 C9             3.6479     3.3161     0.1162 C.3     
  10 C10            2.9192     3.0630    -2.3630 C.2     
  11 N11            3.0314     3.9991    -3.3261 N.am    
  12 O12            1.9501     2.3343    -2.3356 O.2     
  13 C13            1.9828     4.1364    -4.3399 C.3     
  14 C14            2.5778     4.6988    -5.6051 C.ar    
  15 C15            3.7041     5.4967    -5.5443 C.ar    
  16 C16            4.2505     6.0128    -6.7046 C.ar    
  17 C17            3.6718     5.7317    -7.9287 C.ar    
  18 C18            2.5458     4.9346    -7.9948 C.ar    
  19 C19            1.9986     4.4110    -6.8322 C.ar    
  20 C20            0.8953     5.0810    -3.8241 C.3     
  21 O21            0.8940     3.6218    -6.8951 O.3     
  22 C22            0.3512     3.3678    -8.1924 C.3     
  23 H23           -0.7947     1.2906    -0.2409 H       
  24 H24           -0.6182    -1.1507    -0.5092 H       
  25 H25            1.5967    -2.2153    -0.6639 H       
  26 H26            3.6352    -0.8390    -0.5462 H       
  27 H27            1.2438     2.6664    -0.1185 H       
  28 H28            4.7051     1.3281     0.1043 H       
  29 H29            5.0130     3.1209    -1.6635 H       
  30 H30            2.6374     3.6776     0.3068 H       
  31 H31            4.4327     3.7746     0.7177 H       
  32 H32            3.8065     4.5819    -3.3480 H       
  33 H33            1.5470     3.1589    -4.5465 H       
  34 H34            4.1579     5.7176    -4.5895 H       
  35 H35            5.1305     6.6369    -6.6549 H       
  36 H36            4.1005     6.1361    -8.8337 H       
  37 H37            2.0940     4.7157    -8.9511 H       
  38 H38            1.3311     6.0584    -3.6174 H       
  39 H39            0.1151     5.1831    -4.5784 H       
  40 H40            0.4649     4.6742    -2.9090 H       
  41 H41           -0.5254     2.7265    -8.1003 H       
  42 H42            0.0642     4.3110    -8.6572 H       
  43 H43            1.1008     2.8721    -8.8092 H       
@<TRIPOS>BOND
   1    1    2 ar
   2    1    6 ar
   3    1   23 1
   4    2    3 ar
   5    2   24 1
   6    3    4 ar
   7    3   25 1
   8    4    5 ar
   9    4   26 1
  10    5    6 ar
  11    5    7 1
  12    6   27 1
  13    7    8 1
  14    7    9 1
  15    7   28 1
  16    8    9 1
  17    8   10 1
  18    8   29 1
  19    9   30 1
  20    9   31 1
  21   10   11 am
  22   10   12 2
  23   11   13 1
  24   11   32 1
  25   13   14 1
  26   13   20 1
  27   13   33 1
  28   14   15 ar
  29   14   19 ar
  30   15   16 ar
  31   15   34 1
  32   16   17 ar
  33   16   35 1
  34   17   18 ar
  35   17   36 1
  36   18   19 ar
  37   18   37 1
  38   19   21 1
  39   20   38 1
  40   20   39 1
  41   20   40 1
  42   21   22 1
  43   22   41 1
  44   22   42 1
  45   22   43 1

#	End of record

