#	Name: ASD03320139
#	Creating user name:	WinNT
#	Creation time:	15. 06. 2019 20:36

#	Modifying user name:	WinNT
#	Modification time:	15. 06. 2019 20:36

#	Program:	/corina/corina34_cracker 3.40 0067  02.08.2006

@<TRIPOS>MOLECULE
ASD03320139
  50   53    0    0    0
SMALL
NO_CHARGES


@<TRIPOS>ATOM
   1 C1            -0.0181     1.4706     0.0148 C.2     
   2 C2             0.0015    -0.0045     0.0117 C.ar    
   3 C3             1.2195    -0.6864     0.0012 C.ar    
   4 C4             1.2325    -2.0759    -0.0011 C.ar    
   5 C5             0.0203    -2.7850     0.0071 C.ar    
   6 C6            -1.1870    -2.0971     0.0175 C.ar    
   7 C7            -1.2002    -0.7198     0.0252 C.ar    
   8 O8             1.0269     2.0926     0.0081 O.2     
   9 N9            -1.1941     2.1290     0.0193 N.am    
  10 C10           -1.2149     3.5246     0.1327 C.ar    
  11 C11           -2.1832     4.2616    -0.5363 C.ar    
  12 C12           -2.2030     5.6378    -0.4240 C.ar    
  13 C13           -1.2556     6.2841     0.3564 C.ar    
  14 C14           -0.2879     5.5485     1.0250 C.ar    
  15 C15           -0.2706     4.1718     0.9187 C.ar    
  16 O16           -1.2752     7.6392     0.4658 O.3     
  17 C17           -0.2700     8.2385     1.2858 C.3     
  18 F18           -0.3850     7.7542     2.5933 F       
  19 F19            0.9951     7.9204     0.7803 F       
  20 Cl20          -0.4840    10.0288     1.2871 Cl      
  21 N21            3.6461    -2.4762    -0.7301 N.pl3   
  22 C22            4.5837    -3.4075    -0.4465 C.2     
  23 N23            4.0835    -4.2708     0.3956 N.2     
  24 C24            2.8206    -3.9347     0.6842 C.2     
  25 C25            2.5187    -2.8057    -0.0127 C.2     
  26 N26            0.0282    -4.1743     0.0043 N.3     
  27 C27           -0.6476    -4.7089     1.2008 C.3     
  28 C28           -1.7822    -5.6328     0.7105 C.3     
  29 C29           -1.3263    -6.0163    -0.7220 C.3     
  30 C30           -0.6508    -4.7056    -1.1967 C.3     
  31 O31           -1.8809    -6.7942     1.5372 O.3     
  32 H32            2.1486    -0.1359    -0.0054 H       
  33 H33           -2.1182    -2.6442     0.0235 H       
  34 H34           -2.1415    -0.1906     0.0378 H       
  35 H35           -2.0262     1.6361    -0.0560 H       
  36 H36           -2.9205     3.7586    -1.1445 H       
  37 H37           -2.9561     6.2111    -0.9442 H       
  38 H38            0.4496     6.0524     1.6321 H       
  39 H39            0.4801     3.5990     1.4428 H       
  40 H40            3.7496    -1.7164    -1.3242 H       
  41 H41            5.5846    -3.4335    -0.8513 H       
  42 H42            2.1582    -4.4659     1.3516 H       
  43 H43            0.0602    -5.2784     1.8031 H       
  44 H44           -1.0636    -3.8905     1.7884 H       
  45 H45           -2.7309    -5.0967     0.6824 H       
  46 H46           -0.6103    -6.8378    -0.6971 H       
  47 H47           -2.1815    -6.2646    -1.3506 H       
  48 H48           -1.4009    -3.9992    -1.5522 H       
  49 H49            0.0758    -4.9158    -1.9816 H       
  50 H50           -2.5794    -7.4079     1.2715 H       
@<TRIPOS>BOND
   1    1    2 1
   2    1    8 2
   3    1    9 am
   4    2    3 ar
   5    2    7 ar
   6    3    4 ar
   7    3   32 1
   8    4    5 ar
   9    4   25 1
  10    5    6 ar
  11    5   26 1
  12    6    7 ar
  13    6   33 1
  14    7   34 1
  15    9   10 1
  16    9   35 1
  17   10   11 ar
  18   10   15 ar
  19   11   12 ar
  20   11   36 1
  21   12   13 ar
  22   12   37 1
  23   13   14 ar
  24   13   16 1
  25   14   15 ar
  26   14   38 1
  27   15   39 1
  28   16   17 1
  29   17   18 1
  30   17   19 1
  31   17   20 1
  32   21   22 1
  33   21   25 1
  34   21   40 1
  35   22   23 2
  36   22   41 1
  37   23   24 1
  38   24   25 2
  39   24   42 1
  40   26   27 1
  41   26   30 1
  42   27   28 1
  43   27   43 1
  44   27   44 1
  45   28   29 1
  46   28   31 1
  47   28   45 1
  48   29   30 1
  49   29   46 1
  50   29   47 1
  51   30   48 1
  52   30   49 1
  53   31   50 1

#	End of record

