#	Name: ASD01812961
#	Creating user name:	WinNT
#	Creation time:	15. 06. 2019 19:29

#	Modifying user name:	WinNT
#	Modification time:	15. 06. 2019 19:29

#	Program:	/corina/corina34_cracker 3.40 0067  02.08.2006

@<TRIPOS>MOLECULE
ASD01812961
  47   51    0    0    0
SMALL
NO_CHARGES


@<TRIPOS>ATOM
   1 C1             0.0876     1.3251    -0.1247 C.ar    
   2 C2             0.1696    -0.0530    -0.1212 C.ar    
   3 C3             1.3983    -0.6804     0.0202 C.ar    
   4 C4             2.5425     0.0677     0.1581 C.ar    
   5 C5             2.4783     1.4644     0.1568 C.ar    
   6 C6             1.2342     2.0939     0.0133 C.ar    
   7 C7             3.9977    -0.2911     0.3278 C.3     
   8 N8             4.7249     0.9802     0.4190 N.am    
   9 C9             3.8436     1.9903     0.3198 C.2     
  10 C10            6.1727     1.1247     0.5900 C.3     
  11 C11            6.8352     1.1806    -0.7624 C.ar    
  12 O12            1.1517     3.4478     0.0092 O.3     
  13 O13            4.1329     3.1706     0.3591 O.2     
  14 C14            7.0205     2.3986    -1.3902 C.ar    
  15 C15            7.6273     2.4530    -2.6298 C.ar    
  16 C16            8.0514     1.2831    -3.2454 C.ar    
  17 C17            7.8640     0.0616    -2.6126 C.ar    
  18 C18            7.2616     0.0142    -1.3705 C.ar    
  19 C19            1.3392     4.0943    -1.1699 C.ar    
  20 N20            8.9181     2.4925    -5.2517 N.2     
  21 N21            8.6673     1.3350    -4.5037 N.pl3   
  22 C22            9.1250     0.2765    -5.2099 C.2     
  23 C23            9.6479     0.7479    -6.3656 C.2     
  24 C24            9.5055     2.1398    -6.3667 C.2     
  25 N25            1.6318     3.4011    -2.2570 N.ar    
  26 C26            1.8217     3.9882    -3.4235 C.ar    
  27 C27            1.7209     5.3616    -3.5508 C.ar    
  28 C28            1.4149     6.1267    -2.4320 C.ar    
  29 C29            1.2159     5.4786    -1.2233 C.ar    
  30 F30            0.9116     6.1823    -0.1110 F       
  31 F31            1.9181     5.9527    -4.7495 F       
  32 H32           -0.8723     1.8066    -0.2397 H       
  33 H33           -0.7272    -0.6452    -0.2286 H       
  34 H34            1.4559    -1.7588     0.0221 H       
  35 H35            4.1372    -0.8689     1.2414 H       
  36 H36            4.3461    -0.8610    -0.5336 H       
  37 H37            6.3841     2.0439     1.1363 H       
  38 H38            6.5594     0.2727     1.1491 H       
  39 H39            6.6900     3.3083    -0.9110 H       
  40 H40            7.7715     3.4046    -3.1198 H       
  41 H41            8.1925    -0.8502    -3.0892 H       
  42 H42            7.1198    -0.9352    -0.8757 H       
  43 H43            9.0815    -0.7589    -4.9061 H       
  44 H44           10.0962     0.1544    -7.1487 H       
  45 H45            9.8253     2.8081    -7.1525 H       
  46 H46            2.0593     3.3885    -4.2897 H       
  47 H47            1.3300     7.2010    -2.5035 H       
@<TRIPOS>BOND
   1    1    2 ar
   2    1    6 ar
   3    1   32 1
   4    2    3 ar
   5    2   33 1
   6    3    4 ar
   7    3   34 1
   8    4    7 1
   9    4    5 ar
  10    5    6 ar
  11    5    9 1
  12    6   12 1
  13    7    8 1
  14    7   35 1
  15    7   36 1
  16    8    9 am
  17    8   10 1
  18    9   13 2
  19   10   11 1
  20   10   37 1
  21   10   38 1
  22   11   14 ar
  23   11   18 ar
  24   12   19 1
  25   14   15 ar
  26   14   39 1
  27   15   16 ar
  28   15   40 1
  29   16   17 ar
  30   16   21 1
  31   17   18 ar
  32   17   41 1
  33   18   42 1
  34   19   25 ar
  35   19   29 ar
  36   20   21 1
  37   20   24 2
  38   21   22 1
  39   22   23 2
  40   22   43 1
  41   23   24 1
  42   23   44 1
  43   24   45 1
  44   25   26 ar
  45   26   27 ar
  46   26   46 1
  47   27   28 ar
  48   27   31 1
  49   28   29 ar
  50   28   47 1
  51   29   30 1

#	End of record

