#	Name: ASD02500135
#	Creating user name:	WinNT
#	Creation time:	15. 06. 2019 20:22

#	Modifying user name:	WinNT
#	Modification time:	15. 06. 2019 20:22

#	Program:	/corina/corina34_cracker 3.40 0067  02.08.2006

@<TRIPOS>MOLECULE
ASD02500135
  66   71    0    0    0
SMALL
NO_CHARGES


@<TRIPOS>ATOM
   1 N1             2.1464     4.1876    -1.5535 N.ar    
   2 C2             3.0684     3.9814    -0.6449 C.ar    
   3 C3             4.2001     3.2129    -0.9098 C.ar    
   4 C4             4.3694     2.6516    -2.1432 C.ar    
   5 C5             3.3770     2.8747    -3.1164 C.ar    
   6 C6             3.4824     2.3307    -4.4063 C.ar    
   7 C7             2.5013     2.5699    -5.3198 C.ar    
   8 C8             1.3935     3.3484    -4.9917 C.ar    
   9 C9             1.2593     3.8913    -3.7508 C.ar    
  10 C10            2.2511     3.6669    -2.7804 C.ar    
  11 S11           -0.1519     4.8725    -3.3627 S.o2    
  12 O12            0.3386     6.0524    -2.7410 O.2     
  13 O13           -0.9629     4.8882    -4.5294 O.2     
  14 N14           -1.0124     4.0576    -2.2060 N.am    
  15 C15           -1.5886     2.8281    -2.5055 C.ar    
  16 C16           -1.4446     1.7603    -1.6239 C.ar    
  17 C17           -2.0137     0.5423    -1.9174 C.ar    
  18 C18           -2.7371     0.3778    -3.1023 C.ar    
  19 C19           -2.8799     1.4520    -3.9855 C.ar    
  20 C20           -2.3132     2.6691    -3.6835 C.ar    
  21 C21           -3.3480    -0.9268    -3.4203 C.2     
  22 O22           -4.4771    -0.9761    -3.8689 O.2     
  23 N23           -2.6547    -2.0639    -3.2134 N.am    
  24 C24           -3.2137    -3.3636    -3.6112 C.3     
  25 C25           -2.2137    -4.0636    -4.5398 C.3     
  26 N26           -0.8850    -4.0260    -3.9129 N.am    
  27 C27           -0.3261    -2.7263    -3.5151 C.3     
  28 C28           -1.3237    -2.0258    -2.5916 C.3     
  29 C29            2.0241    -4.0684    -3.5454 C.ar    
  30 C30            1.1833    -5.1027    -3.1682 C.ar    
  31 C31            1.6282    -6.0952    -2.2770 C.ar    
  32 C32            2.8868    -6.0615    -1.7694 C.ar    
  33 C33            3.7648    -5.0245    -2.1333 C.ar    
  34 C34            5.0719    -4.9687    -1.6212 C.ar    
  35 C35            5.8993    -3.9532    -1.9921 C.ar    
  36 C36            5.4705    -2.9635    -2.8747 C.ar    
  37 C37            4.2115    -2.9836    -3.3910 C.ar    
  38 C38            3.3281    -4.0174    -3.0314 C.ar    
  39 C39           -0.1917    -5.1631    -3.7060 C.2     
  40 O40           -0.6976    -6.2385    -3.9620 O.2     
  41 H41            2.9478     4.4192     0.3350 H       
  42 H42            4.9429     3.0617    -0.1405 H       
  43 H43            5.2406     2.0534    -2.3659 H       
  44 H44            4.3368     1.7262    -4.6727 H       
  45 H45            2.5832     2.1510    -6.3118 H       
  46 H46            0.6290     3.5243    -5.7340 H       
  47 H47           -1.1144     4.4381    -1.3195 H       
  48 H48           -0.8853     1.8879    -0.7088 H       
  49 H49           -1.9013    -0.2858    -1.2333 H       
  50 H50           -3.4379     1.3279    -4.9018 H       
  51 H51           -2.4273     3.5007    -4.3631 H       
  52 H52           -3.3812    -3.9763    -2.7254 H       
  53 H53           -4.1562    -3.2109    -4.1370 H       
  54 H54           -2.5179    -5.0994    -4.6907 H       
  55 H55           -2.1806    -3.5461    -5.4985 H       
  56 H56            0.6164    -2.8790    -2.9892 H       
  57 H57           -0.1586    -2.1136    -4.4009 H       
  58 H58           -1.0182    -0.9899    -2.4442 H       
  59 H59           -1.3535    -2.5411    -1.6316 H       
  60 H60            1.6799    -3.3103    -4.2333 H       
  61 H61            0.9599    -6.8945    -1.9925 H       
  62 H62            3.2139    -6.8308    -1.0856 H       
  63 H63            5.4188    -5.7281    -0.9361 H       
  64 H64            6.9032    -3.9137    -1.5959 H       
  65 H65            6.1470    -2.1689    -3.1526 H       
  66 H66            3.8924    -2.2097    -4.0734 H       
@<TRIPOS>BOND
   1    1    2 ar
   2    1   10 ar
   3    2    3 ar
   4    2   41 1
   5    3    4 ar
   6    3   42 1
   7    4    5 ar
   8    4   43 1
   9    5    6 ar
  10    5   10 ar
  11    6    7 ar
  12    6   44 1
  13    7    8 ar
  14    7   45 1
  15    8    9 ar
  16    8   46 1
  17    9   10 ar
  18    9   11 1
  19   11   12 2
  20   11   13 2
  21   11   14 am
  22   14   15 1
  23   14   47 1
  24   15   16 ar
  25   15   20 ar
  26   16   17 ar
  27   16   48 1
  28   17   18 ar
  29   17   49 1
  30   18   19 ar
  31   18   21 1
  32   19   20 ar
  33   19   50 1
  34   20   51 1
  35   21   22 2
  36   21   23 am
  37   23   24 1
  38   23   28 1
  39   24   25 1
  40   24   52 1
  41   24   53 1
  42   25   26 1
  43   25   54 1
  44   25   55 1
  45   26   27 1
  46   26   39 am
  47   27   28 1
  48   27   56 1
  49   27   57 1
  50   28   58 1
  51   28   59 1
  52   29   30 ar
  53   29   38 ar
  54   29   60 1
  55   30   31 ar
  56   30   39 1
  57   31   32 ar
  58   31   61 1
  59   32   33 ar
  60   32   62 1
  61   33   34 ar
  62   33   38 ar
  63   34   35 ar
  64   34   63 1
  65   35   36 ar
  66   35   64 1
  67   36   37 ar
  68   36   65 1
  69   37   38 ar
  70   37   66 1
  71   39   40 2

#	End of record

