#	Name: ASD00844834
#	Creating user name:	WinNT
#	Creation time:	15. 06. 2019 18:51

#	Modifying user name:	WinNT
#	Modification time:	15. 06. 2019 18:51

#	Program:	/corina/corina34_cracker 3.40 0067  02.08.2006

@<TRIPOS>MOLECULE
ASD00844834
  88   93    0    0    0
SMALL
NO_CHARGES


@<TRIPOS>ATOM
   1 F1             5.6871    -2.1807    -1.9675 F       
   2 C2             0.7265     1.2380    -0.3789 C.ar    
   3 C3             0.9729    -0.0999    -0.6495 C.ar    
   4 C4             0.8520    -1.0433     0.3607 C.ar    
   5 C5             0.4868    -0.6483     1.6329 C.ar    
   6 C6             0.2413     0.6861     1.9000 C.ar    
   7 C7             0.3615     1.6281     0.8953 C.ar    
   8 C8             1.1185    -2.4978     0.0701 C.3     
   9 C9             0.7936    -3.3485     1.2795 C.2     
  10 C10            0.3070    -2.9581    -1.1425 C.3     
  11 C11           -1.1535    -2.6696    -0.9085 C.2     
  12 N12           -2.0743    -3.0889    -1.7989 N.am    
  13 O13           -1.5002    -2.0602     0.0811 O.2     
  14 C14           -3.4906    -2.7213    -1.6499 C.3     
  15 C15           -3.9837    -2.1354    -2.9773 C.3     
  16 N16           -3.6988    -3.0831    -4.0630 N.3     
  17 C17           -2.2536    -3.2929    -4.2216 C.3     
  18 C18           -1.6887    -3.9211    -2.9486 C.3     
  19 N19           -4.3014    -2.6425    -5.3107 N.3     
  20 C20           -4.0164    -3.5905    -6.3968 C.3     
  21 C21           -4.7323    -3.1336    -7.6701 C.3     
  22 N22           -4.2809    -1.7806    -8.0240 N.3     
  23 C23           -4.5659    -0.8326    -6.9379 C.3     
  24 C24           -3.8501    -1.2895    -5.6646 C.3     
  25 H25           -3.2997    -1.7767    -8.2592 H       
  26 O26           -0.2910    -3.4612     1.8105 O.2     
  27 N27            1.9323    -3.9557     1.6537 N.am    
  28 C28            2.5944    -2.7305    -0.1576 C.ar    
  29 C29            3.0080    -3.6145     0.8311 C.ar    
  30 C30            3.4839    -2.2505    -1.0922 C.ar    
  31 C31            4.8105    -2.6496    -1.0527 C.ar    
  32 C32            5.2347    -3.5310    -0.0712 C.ar    
  33 C33            4.3425    -4.0124     0.8662 C.ar    
  34 Cl34           6.8960    -4.0322    -0.0198 Cl      
  35 C35            1.7231    -6.6128     2.3397 C.ar    
  36 C36            0.4684    -6.9286     1.8385 C.ar    
  37 C37            2.7206    -7.5691     2.3612 C.ar    
  38 C38            2.4715    -8.8413     1.8835 C.ar    
  39 C39            1.2181    -9.1621     1.3812 C.ar    
  40 C40            0.2158    -8.2048     1.3589 C.ar    
  41 O41            0.9735   -10.4138     0.9119 O.3     
  42 O42           -0.5122    -5.9880     1.8180 O.3     
  43 C43           -1.7791    -6.3830     1.2880 C.3     
  44 C44            2.0524   -11.3492     0.9660 C.3     
  45 O45            1.3317    -0.4862    -1.9021 O.3     
  46 C46            1.3584     0.5261    -2.9105 C.3     
  47 C47            1.8663    -0.0746    -4.2227 C.3     
  48 F48            3.1198    -0.6595    -4.0135 F       
  49 F49            0.9662    -1.0480    -4.6693 F       
  50 S50            2.0471    -4.9892     2.9425 S.o2    
  51 O51            3.4091    -4.9758     3.3475 O.2     
  52 O52            0.9737    -4.6634     3.8149 O.2     
  53 H53            0.8243     1.9748    -1.1625 H       
  54 H54            0.3926    -1.3822     2.4195 H       
  55 H55           -0.0449     0.9929     2.8951 H       
  56 H56            0.1692     2.6697     1.1064 H       
  57 H57            0.6452    -2.4236    -2.0302 H       
  58 H58            0.4470    -4.0293    -1.2881 H       
  59 H59           -4.0747    -3.6073    -1.4013 H       
  60 H60           -3.5947    -1.9772    -0.8602 H       
  61 H61           -5.0579    -1.9595    -2.9205 H       
  62 H62           -3.4704    -1.1939    -3.1723 H       
  63 H63           -2.0730    -3.9565    -5.0673 H       
  64 H64           -1.7643    -2.3353    -4.3993 H       
  65 H65           -0.6020    -3.9730    -3.0169 H       
  66 H66           -2.0986    -4.9231    -2.8216 H       
  67 H67           -2.9419    -3.6256    -6.5763 H       
  68 H68           -4.3711    -4.5823    -6.1162 H       
  69 H69           -4.4989    -3.8195    -8.4845 H       
  70 H70           -5.8087    -3.1247    -7.4989 H       
  71 H71           -4.2113     0.1592    -7.2185 H       
  72 H72           -5.6405    -0.7975    -6.7584 H       
  73 H73           -4.0835    -0.6036    -4.8502 H       
  74 H74           -2.7737    -1.2983    -5.8358 H       
  75 H75            3.1483    -1.5640    -1.8555 H       
  76 H76            4.6800    -4.6991     1.6284 H       
  77 H77            3.6966    -7.3214     2.7517 H       
  78 H78            3.2529    -9.5867     1.9008 H       
  79 H79           -0.7603    -8.4527     0.9687 H       
  80 H80           -2.4693    -5.5404     1.3301 H       
  81 H81           -1.6567    -6.7011     0.2527 H       
  82 H82           -2.1778    -7.2089     1.8771 H       
  83 H83            1.7238   -12.3066     0.5617 H       
  84 H84            2.8888   -10.9737     0.3766 H       
  85 H85            2.3675   -11.4809     2.0011 H       
  86 H86            0.3526     0.9201    -3.0565 H       
  87 H87            2.0226     1.3321    -2.5987 H       
  88 H88            1.9529     0.7116    -4.9727 H       
@<TRIPOS>BOND
   1    1   31 1
   2    2    3 ar
   3    2    7 ar
   4    2   53 1
   5    3    4 ar
   6    3   45 1
   7    4    5 ar
   8    4    8 1
   9    5    6 ar
  10    5   54 1
  11    6    7 ar
  12    6   55 1
  13    7   56 1
  14    8    9 1
  15    8   10 1
  16    8   28 1
  17    9   26 2
  18    9   27 am
  19   10   11 1
  20   10   57 1
  21   10   58 1
  22   11   12 am
  23   11   13 2
  24   12   14 1
  25   12   18 1
  26   14   15 1
  27   14   59 1
  28   14   60 1
  29   15   16 1
  30   15   61 1
  31   15   62 1
  32   16   17 1
  33   16   19 1
  34   17   18 1
  35   17   63 1
  36   17   64 1
  37   18   65 1
  38   18   66 1
  39   19   20 1
  40   19   24 1
  41   20   21 1
  42   20   67 1
  43   20   68 1
  44   21   22 1
  45   21   69 1
  46   21   70 1
  47   22   23 1
  48   22   25 1
  49   23   24 1
  50   23   71 1
  51   23   72 1
  52   24   73 1
  53   24   74 1
  54   27   50 am
  55   27   29 1
  56   28   29 ar
  57   28   30 ar
  58   29   33 ar
  59   30   31 ar
  60   30   75 1
  61   31   32 ar
  62   32   33 ar
  63   32   34 1
  64   33   76 1
  65   35   36 ar
  66   35   37 ar
  67   35   50 1
  68   36   42 1
  69   36   40 ar
  70   37   38 ar
  71   37   77 1
  72   38   39 ar
  73   38   78 1
  74   39   40 ar
  75   39   41 1
  76   40   79 1
  77   41   44 1
  78   42   43 1
  79   43   80 1
  80   43   81 1
  81   43   82 1
  82   44   83 1
  83   44   84 1
  84   44   85 1
  85   45   46 1
  86   46   47 1
  87   46   86 1
  88   46   87 1
  89   47   48 1
  90   47   49 1
  91   47   88 1
  92   50   51 2
  93   50   52 2

#	End of record

