#	Name: ASD01916503
#	Creating user name:	WinNT
#	Creation time:	15. 06. 2019 20:07

#	Modifying user name:	WinNT
#	Modification time:	15. 06. 2019 20:07

#	Program:	/corina/corina34_cracker 3.40 0067  02.08.2006

@<TRIPOS>MOLECULE
ASD01916503
  44   47    0    0    0
SMALL
NO_CHARGES


@<TRIPOS>ATOM
   1 C1            -0.0171     1.4100     0.0098 C.ar    
   2 C2             0.0021    -0.0041     0.0020 C.ar    
   3 C3            -1.1907    -0.7259     0.0414 C.ar    
   4 C4            -2.3854    -0.0636     0.0742 C.ar    
   5 C5            -2.4219     1.3409     0.0663 C.ar    
   6 C6            -1.2400     2.0772     0.0357 C.ar    
   7 N7             1.1602     2.0754     0.0021 N.2     
   8 C8             2.3200     1.4680    -0.0397 C.2     
   9 N9             2.4202     0.1195    -0.1574 N.am    
  10 C10            1.3105    -0.6629    -0.0625 C.2     
  11 C11           -3.6825     2.0199     0.0900 C.1     
  12 C12           -4.7160     2.5765     0.1094 C.1     
  13 C13           -5.9766     3.2554     0.1331 C.ar    
  14 N14           -6.0107     4.5845     0.1257 N.ar    
  15 C15           -7.1497     5.2453     0.1464 C.ar    
  16 C16           -8.3596     4.5758     0.1768 C.ar    
  17 C17           -8.3712     3.1874     0.1856 C.ar    
  18 C18           -7.1622     2.5162     0.1581 C.ar    
  19 O19            1.4017    -1.8765    -0.0317 O.2     
  20 C20            3.5360     2.3453     0.1018 C.3     
  21 C21            4.7923     1.6925    -0.4309 C.3     
  22 C22            4.8966     0.2362    -0.0268 C.3     
  23 C23            3.6797    -0.5619    -0.4365 C.3     
  24 C24            4.7905     1.7850    -1.9581 C.3     
  25 C25            6.0100     2.4458     0.1082 C.3     
  26 F26           -3.5398    -0.7643     0.1140 F       
  27 H27           -1.1700    -1.8057     0.0456 H       
  28 H28           -1.2712     3.1568     0.0317 H       
  29 H29           -7.1388     6.3252     0.1399 H       
  30 H30           -9.2875     5.1283     0.1939 H       
  31 H31           -9.3039     2.6434     0.2092 H       
  32 H32           -7.1347     1.4366     0.1640 H       
  33 H33            3.3647     3.2745    -0.4415 H       
  34 H34            3.6808     2.5785     1.1567 H       
  35 H35            5.7789    -0.1985    -0.4967 H       
  36 H36            5.0098     0.1772     1.0557 H       
  37 H37            3.6889    -1.5122     0.0973 H       
  38 H38            3.7382    -0.7643    -1.5060 H       
  39 H39            4.7640     2.8325    -2.2587 H       
  40 H40            5.6928     1.3169    -2.3516 H       
  41 H41            3.9134     1.2717    -2.3522 H       
  42 H42            6.0084     2.4067     1.1975 H       
  43 H43            6.9210     1.9823    -0.2706 H       
  44 H44            5.9683     3.4849    -0.2182 H       
@<TRIPOS>BOND
   1    1    2 ar
   2    1    7 1
   3    1    6 ar
   4    2    3 ar
   5    2   10 1
   6    3    4 ar
   7    3   27 1
   8    4    5 ar
   9    4   26 1
  10    5    6 ar
  11    5   11 1
  12    6   28 1
  13    7    8 2
  14    8    9 1
  15    8   20 1
  16    9   10 am
  17    9   23 1
  18   10   19 2
  19   11   12 3
  20   12   13 1
  21   13   14 ar
  22   13   18 ar
  23   14   15 ar
  24   15   16 ar
  25   15   29 1
  26   16   17 ar
  27   16   30 1
  28   17   18 ar
  29   17   31 1
  30   18   32 1
  31   20   21 1
  32   20   33 1
  33   20   34 1
  34   21   22 1
  35   21   24 1
  36   21   25 1
  37   22   23 1
  38   22   35 1
  39   22   36 1
  40   23   37 1
  41   23   38 1
  42   24   39 1
  43   24   40 1
  44   24   41 1
  45   25   42 1
  46   25   43 1
  47   25   44 1

#	End of record

