#	Name: ASD02038660
#	Creating user name:	WinNT
#	Creation time:	15. 06. 2019 20:17

#	Modifying user name:	WinNT
#	Modification time:	15. 06. 2019 20:17

#	Program:	/corina/corina34_cracker 3.40 0067  02.08.2006

@<TRIPOS>MOLECULE
ASD02038660
  44   46    0    0    0
SMALL
NO_CHARGES


@<TRIPOS>ATOM
   1 C1            -0.0167     1.3813     0.0096 C.ar    
   2 C2             0.0021    -0.0041     0.0020 C.ar    
   3 O3            -1.1673    -0.6979     0.0095 O.3     
   4 C4            -1.0756    -2.1239     0.0009 C.3     
   5 C5            -2.4823    -2.7255     0.0111 C.3     
   6 C6            -2.3875    -4.2466    -0.1237 C.3     
   7 N7            -3.7382    -4.8135    -0.2342 N.3     
   8 C8            -3.6863    -6.2757    -0.3655 C.3     
   9 C9            -5.1085    -6.8284    -0.4779 C.3     
  10 C10            2.3884     1.3998    -0.0132 C.ar    
  11 C11            2.4019     0.0139    -0.0208 C.ar    
  12 C12            1.2115    -0.6861    -0.0137 C.ar    
  13 O13           -3.1325    -2.3958     1.2402 O.3     
  14 C14            1.1755     2.0879     0.0020 C.ar    
  15 C15           -5.0827    -9.1247     0.5167 C.ar    
  16 C16           -5.0553    -8.3285    -0.6126 C.ar    
  17 C17           -5.0343   -10.5018     0.3935 C.ar    
  18 C18           -4.9584   -11.0815    -0.8614 C.ar    
  19 C19           -4.9310   -10.2829    -1.9908 C.ar    
  20 C20           -4.9794    -8.9074    -1.8659 C.ar    
  21 Cl21          -4.8971   -12.8093    -1.0177 Cl      
  22 Cl22          -5.0682   -11.5024     1.8117 Cl      
  23 O23            1.4639     3.4125     0.0068 O.3     
  24 C24            2.7963     3.5747    -0.0047 C.2     
  25 N25            3.3955     2.3675    -0.0172 N.am    
  26 O26            3.3734     4.6451    -0.0041 O.2     
  27 H27           -0.9587     1.9095     0.0170 H       
  28 H28           -0.5480    -2.4487    -0.8959 H       
  29 H29           -0.5310    -2.4583     0.8840 H       
  30 H30           -3.0561    -2.3218    -0.8231 H       
  31 H31           -1.8141    -4.4972    -1.0161 H       
  32 H32           -1.8912    -4.6589     0.7548 H       
  33 H33           -4.3101    -4.5410     0.5511 H       
  34 H34           -3.1219    -6.5404    -1.2597 H       
  35 H35           -3.1990    -6.7021     0.5113 H       
  36 H36           -5.6729    -6.5637     0.4162 H       
  37 H37           -5.5958    -6.4020    -1.3547 H       
  38 H38            3.3419    -0.5177    -0.0326 H       
  39 H39            1.2212    -1.7660    -0.0199 H       
  40 H40           -2.6760    -2.7241     2.0270 H       
  41 H41           -5.1374    -8.6717     1.4956 H       
  42 H42           -4.8714   -10.7344    -2.9701 H       
  43 H43           -4.9584    -8.2843    -2.7478 H       
  44 H44            4.3511     2.2013    -0.0266 H       
@<TRIPOS>BOND
   1    1    2 ar
   2    1   14 ar
   3    1   27 1
   4    2    3 1
   5    2   12 ar
   6    3    4 1
   7    4    5 1
   8    4   28 1
   9    4   29 1
  10    5    6 1
  11    5   13 1
  12    5   30 1
  13    6    7 1
  14    6   31 1
  15    6   32 1
  16    7    8 1
  17    7   33 1
  18    8    9 1
  19    8   34 1
  20    8   35 1
  21    9   16 1
  22    9   36 1
  23    9   37 1
  24   10   11 ar
  25   10   14 ar
  26   10   25 1
  27   11   12 ar
  28   11   38 1
  29   12   39 1
  30   13   40 1
  31   14   23 1
  32   15   16 ar
  33   15   17 ar
  34   15   41 1
  35   16   20 ar
  36   17   18 ar
  37   17   22 1
  38   18   19 ar
  39   18   21 1
  40   19   20 ar
  41   19   42 1
  42   20   43 1
  43   23   24 1
  44   24   25 am
  45   24   26 2
  46   25   44 1

#	End of record

