#	Name: ASD01948329
#	Creating user name:	WinNT
#	Creation time:	15. 06. 2019 20:14

#	Modifying user name:	WinNT
#	Modification time:	15. 06. 2019 20:14

#	Program:	/corina/corina34_cracker 3.40 0067  02.08.2006

@<TRIPOS>MOLECULE
ASD01948329
  52   54    0    0    0
SMALL
NO_CHARGES


@<TRIPOS>ATOM
   1 C1            -0.0285     1.1036    -0.2667 C.2     
   2 N2             0.0983    -0.1983    -0.6545 N.am    
   3 C3             1.3092    -0.7460    -0.8657 C.2     
   4 C4             2.3541     1.3403    -0.2968 C.2     
   5 C5             1.0640     1.8818    -0.0837 C.2     
   6 C6             2.7891     3.5624    -1.9222 C.ar    
   7 C7             3.7070     3.2328    -0.9327 C.ar    
   8 N8             3.4853     2.1221    -0.1139 N.pl3   
   9 C9             3.0112     4.6601    -2.7298 C.ar    
  10 C10            4.1466     5.4312    -2.5548 C.ar    
  11 C11            5.0621     5.1059    -1.5702 C.ar    
  12 C12            4.8457     4.0091    -0.7592 C.ar    
  13 N13            0.9178     3.2203     0.3153 N.am    
  14 S14           -0.5914     3.8950     0.4135 S.o2    
  15 N15           -1.0988     4.1884    -1.1353 N.am    
  16 O16            1.3966    -1.9146    -1.2123 O.2     
  17 C17           -1.1039    -1.0138    -0.8438 C.3     
  18 C18            5.8438     3.6551     0.3129 C.3     
  19 I19            4.4796     7.0954    -3.7831 I       
  20 O20           -1.4484     2.8873     0.9324 O.2     
  21 O21           -0.4239     5.1651     1.0283 O.2     
  22 C22            2.4692     0.0178    -0.6903 C.2     
  23 F23            3.6863    -0.5292    -0.9015 F       
  24 C24           -1.7123     3.1148    -1.9209 C.3     
  25 C25           -0.9343     5.5217    -1.7198 C.3     
  26 C26           -1.6954    -1.4017     0.5240 C.3     
  27 C27           -3.1277    -0.8196     0.5242 C.3     
  28 C28           -3.4380    -0.6625    -0.9856 C.3     
  29 N29           -2.1365    -0.2311    -1.5569 N.3     
  30 H30           -1.0125     1.5195    -0.1080 H       
  31 H31            1.9051     2.9581    -2.0625 H       
  32 H32            4.1225     1.8979     0.5822 H       
  33 H33            2.2981     4.9169    -3.4992 H       
  34 H34            5.9476     5.7095    -1.4363 H       
  35 H35            1.7008     3.7497     0.5334 H       
  36 H36           -0.8577    -1.9121    -1.4100 H       
  37 H37            5.5776     4.1638     1.2395 H       
  38 H38            5.8360     2.5772     0.4750 H       
  39 H39            6.8398     3.9682    -0.0002 H       
  40 H40           -2.7905     3.1182    -1.7612 H       
  41 H41           -1.5012     3.2723    -2.9786 H       
  42 H42           -1.3016     2.1550    -1.6075 H       
  43 H43           -0.3820     6.1565    -1.0270 H       
  44 H44           -0.3839     5.4420    -2.6573 H       
  45 H45           -1.9147     5.9584    -1.9101 H       
  46 H46           -1.7278    -2.4862     0.6285 H       
  47 H47           -1.1077    -0.9606     1.3292 H       
  48 H48           -3.8261    -1.5140     0.9913 H       
  49 H49           -3.1507     0.1480     1.0255 H       
  50 H50           -3.7502    -1.6143    -1.4153 H       
  51 H51           -4.1997     0.1009    -1.1443 H       
  52 H52           -1.9944     0.7592    -1.4257 H       
@<TRIPOS>BOND
   1    1    2 1
   2    1    5 2
   3    1   30 1
   4    2    3 am
   5    2   17 1
   6    3   22 1
   7    3   16 2
   8    4    5 1
   9    4    8 1
  10    4   22 2
  11    5   13 1
  12    6    7 ar
  13    6    9 ar
  14    6   31 1
  15    7    8 1
  16    7   12 ar
  17    8   32 1
  18    9   10 ar
  19    9   33 1
  20   10   11 ar
  21   10   19 1
  22   11   12 ar
  23   11   34 1
  24   12   18 1
  25   13   14 am
  26   13   35 1
  27   14   15 am
  28   14   20 2
  29   14   21 2
  30   15   24 1
  31   15   25 1
  32   17   26 1
  33   17   29 1
  34   17   36 1
  35   18   37 1
  36   18   38 1
  37   18   39 1
  38   22   23 1
  39   24   40 1
  40   24   41 1
  41   24   42 1
  42   25   43 1
  43   25   44 1
  44   25   45 1
  45   26   27 1
  46   26   46 1
  47   26   47 1
  48   27   28 1
  49   27   48 1
  50   27   49 1
  51   28   29 1
  52   28   50 1
  53   28   51 1
  54   29   52 1

#	End of record

