#	Name: ASD04590012
#	Creating user name:	WinNT
#	Creation time:	15. 06. 2019 20:50

#	Modifying user name:	WinNT
#	Modification time:	15. 06. 2019 20:50

#	Program:	/corina/corina34_cracker 3.40 0067  02.08.2006

@<TRIPOS>MOLECULE
ASD04590012
  25   26    0    0    0
SMALL
NO_CHARGES


@<TRIPOS>ATOM
   1 N1            -0.0768     1.2683    -0.0507 N.pl3   
   2 N2            -0.0362    -0.0147     0.0017 N.2     
   3 C3             1.1934    -0.4376    -0.2149 C.2     
   4 C4             1.9942     0.7105    -0.4227 C.2     
   5 C5             1.1520     1.7643    -0.3102 C.2     
   6 C6             1.6488    -1.8423    -0.2359 C.2     
   7 O7             2.8180    -2.0992    -0.4483 O.2     
   8 N8             0.7682    -2.8394    -0.0195 N.am    
   9 C9             1.1780    -4.1715    -0.1355 C.ar    
  10 C10            2.4576    -4.5427     0.2568 C.ar    
  11 C11            2.8591    -5.8591     0.1410 C.ar    
  12 C12            1.9887    -6.8071    -0.3649 C.ar    
  13 C13            0.7142    -6.4407    -0.7568 C.ar    
  14 C14            0.3043    -5.1272    -0.6378 C.ar    
  15 N15            3.4469     0.7506    -0.7039 N.pl3   
  16 O16            4.0073     1.8205    -0.8619 O.2     
  17 O17            4.0818    -0.2862    -0.7774 O.2     
  18 H18           -0.8761     1.8035     0.0742 H       
  19 H19            1.4140     2.8073    -0.4098 H       
  20 H20           -0.1497    -2.6331     0.2166 H       
  21 H21            3.1380    -3.8028     0.6517 H       
  22 H22            3.8541    -6.1483     0.4455 H       
  23 H23            2.3052    -7.8358    -0.4545 H       
  24 H24            0.0369    -7.1834    -1.1519 H       
  25 H25           -0.6929    -4.8426    -0.9396 H       
@<TRIPOS>BOND
   1    1    2 1
   2    1    5 1
   3    1   18 1
   4    2    3 2
   5    3    4 1
   6    3    6 1
   7    4    5 2
   8    4   15 1
   9    5   19 1
  10    6    7 2
  11    6    8 am
  12    8    9 1
  13    8   20 1
  14    9   10 ar
  15    9   14 ar
  16   10   11 ar
  17   10   21 1
  18   11   12 ar
  19   11   22 1
  20   12   13 ar
  21   12   23 1
  22   13   14 ar
  23   13   24 1
  24   14   25 1
  25   15   16 2
  26   15   17 2

#	End of record

