#	Name: ASD02500064
#	Creating user name:	WinNT
#	Creation time:	15. 06. 2019 20:22

#	Modifying user name:	WinNT
#	Modification time:	15. 06. 2019 20:22

#	Program:	/corina/corina34_cracker 3.40 0067  02.08.2006

@<TRIPOS>MOLECULE
ASD02500064
  66   70    0    0    0
SMALL
NO_CHARGES


@<TRIPOS>ATOM
   1 N1             1.8082     3.9258    -0.8392 N.ar    
   2 C2             2.7804     3.6119    -0.0180 C.ar    
   3 C3             3.9092     2.9180    -0.4491 C.ar    
   4 C4             4.0223     2.5468    -1.7586 C.ar    
   5 C5             2.9761     2.8853    -2.6376 C.ar    
   6 C6             3.0220     2.5379    -3.9970 C.ar    
   7 C7             1.9900     2.8839    -4.8153 C.ar    
   8 C8             0.8882     3.5790    -4.3213 C.ar    
   9 C9             0.8109     3.9316    -3.0090 C.ar    
  10 C10            1.8564     3.5923    -2.1329 C.ar    
  11 S11           -0.5939     4.8110    -2.4109 S.o2    
  12 O12           -0.0910     5.9092    -1.6623 O.2     
  13 O13           -1.4735     4.9620    -3.5167 O.2     
  14 N14           -1.3670     3.8230    -1.3300 N.am    
  15 C15           -1.8942     2.6078    -1.7527 C.ar    
  16 C16           -1.6615     1.4536    -1.0098 C.ar    
  17 C17           -2.1818     0.2495    -1.4255 C.ar    
  18 C18           -2.9449     0.1859    -2.5951 C.ar    
  19 C19           -3.1767     1.3466    -3.3389 C.ar    
  20 C20           -2.6584     2.5488    -2.9148 C.ar    
  21 C21           -3.5038    -1.1035    -3.0438 C.2     
  22 O22           -4.6265    -1.1508    -3.5082 O.2     
  23 N23           -2.7699    -2.2291    -2.9390 N.am    
  24 C24           -3.2748    -3.5102    -3.4557 C.3     
  25 C25           -2.2007    -4.1290    -4.3566 C.3     
  26 N26           -0.9345    -4.2133    -3.6167 N.3     
  27 C27           -0.4410    -2.8788    -3.2512 C.3     
  28 C28           -1.4404    -2.2076    -2.3104 C.3     
  29 C29            0.0251    -4.9195    -4.3455 C.ar    
  30 C30            1.2949    -5.1114    -3.8191 C.ar    
  31 C31            2.2451    -5.8140    -4.5462 C.ar    
  32 C32            1.9227    -6.3231    -5.7987 C.ar    
  33 C33            0.6580    -6.1303    -6.3197 C.ar    
  34 C34           -0.2922    -5.4357    -5.5960 C.ar    
  35 N35            3.5242    -6.0090    -4.0203 N.pl3   
  36 C36            3.9017    -5.3712    -2.7566 C.3     
  37 C37            4.4884    -6.8513    -4.7324 C.3     
  38 H38            2.7047     3.8989     1.0204 H       
  39 H39            4.6942     2.6743     0.2515 H       
  40 H40            4.8904     2.0089    -2.1100 H       
  41 H41            3.8711     1.9997    -4.3917 H       
  42 H42            2.0262     2.6162    -5.8609 H       
  43 H43            0.0827     3.8425    -4.9907 H       
  44 H44           -1.4521     4.0921    -0.4019 H       
  45 H45           -1.0716     1.5033    -0.1064 H       
  46 H46           -2.0007    -0.6456    -0.8489 H       
  47 H47           -3.7655     1.3007    -4.2431 H       
  48 H48           -2.8412     3.4467    -3.4864 H       
  49 H49           -3.4869    -4.1823    -2.6242 H       
  50 H50           -4.1833    -3.3397    -4.0332 H       
  51 H51           -2.5120    -5.1286    -4.6599 H       
  52 H52           -2.0646    -3.5061    -5.2407 H       
  53 H53            0.5239    -2.9717    -2.7528 H       
  54 H54           -0.3294    -2.2733    -4.1507 H       
  55 H55           -1.1367    -1.1762    -2.1311 H       
  56 H56           -1.4727    -2.7521    -1.3667 H       
  57 H57            1.5429    -4.7145    -2.8458 H       
  58 H58            2.6620    -6.8698    -6.3653 H       
  59 H59            0.4101    -6.5270    -7.2932 H       
  60 H60           -1.2813    -5.2902    -6.0044 H       
  61 H61            3.6579    -6.0354    -1.9274 H       
  62 H62            4.9728    -5.1691    -2.7574 H       
  63 H63            3.3553    -4.4347    -2.6448 H       
  64 H64            4.0637    -7.1625    -5.6868 H       
  65 H65            5.4036    -6.2863    -4.9090 H       
  66 H66            4.7152    -7.7318    -4.1313 H       
@<TRIPOS>BOND
   1    1    2 ar
   2    1   10 ar
   3    2    3 ar
   4    2   38 1
   5    3    4 ar
   6    3   39 1
   7    4    5 ar
   8    4   40 1
   9    5    6 ar
  10    5   10 ar
  11    6    7 ar
  12    6   41 1
  13    7    8 ar
  14    7   42 1
  15    8    9 ar
  16    8   43 1
  17    9   10 ar
  18    9   11 1
  19   11   12 2
  20   11   13 2
  21   11   14 am
  22   14   15 1
  23   14   44 1
  24   15   16 ar
  25   15   20 ar
  26   16   17 ar
  27   16   45 1
  28   17   18 ar
  29   17   46 1
  30   18   19 ar
  31   18   21 1
  32   19   20 ar
  33   19   47 1
  34   20   48 1
  35   21   22 2
  36   21   23 am
  37   23   24 1
  38   23   28 1
  39   24   25 1
  40   24   49 1
  41   24   50 1
  42   25   26 1
  43   25   51 1
  44   25   52 1
  45   26   27 1
  46   26   29 1
  47   27   28 1
  48   27   53 1
  49   27   54 1
  50   28   55 1
  51   28   56 1
  52   29   30 ar
  53   29   34 ar
  54   30   31 ar
  55   30   57 1
  56   31   32 ar
  57   31   35 1
  58   32   33 ar
  59   32   58 1
  60   33   34 ar
  61   33   59 1
  62   34   60 1
  63   35   36 1
  64   35   37 1
  65   36   61 1
  66   36   62 1
  67   36   63 1
  68   37   64 1
  69   37   65 1
  70   37   66 1

#	End of record

