#	Name: ASD05740119
#	Creating user name:	WinNT
#	Creation time:	15. 06. 2019 21:02

#	Modifying user name:	WinNT
#	Modification time:	15. 06. 2019 21:02

#	Program:	/corina/corina34_cracker 3.40 0067  02.08.2006

@<TRIPOS>MOLECULE
ASD05740119
  48   51    0    0    0
SMALL
NO_CHARGES


@<TRIPOS>ATOM
   1 C1            -0.0025     1.5063     0.1839 C.3     
   2 C2            -2.8570     1.2287    -1.7081 C.ar    
   3 C3             1.2385    -0.6973     0.0781 C.2     
   4 C4             1.2498    -2.0818     0.0921 C.2     
   5 C5             0.0175    -0.0005     0.1983 C.2     
   6 C6            -1.1431    -0.7023     0.3280 C.2     
   7 C7            -1.0978    -2.1057     0.3390 C.2     
   8 O8             0.0685    -2.7532     0.2240 O.3     
   9 C9            -2.4598     0.0192     0.4584 C.3     
  10 C10           -3.1055     0.1355    -0.8983 C.ar    
  11 C11           -3.9637    -0.8524    -1.3632 C.ar    
  12 O12           -2.1318    -2.7415     0.4551 O.2     
  13 C13           -3.4718     1.3013    -2.9542 C.ar    
  14 N14           -4.2845     0.3387    -3.3616 N.ar    
  15 C15           -4.5394    -0.7159    -2.6102 C.ar    
  16 N16           -3.2314     2.3945    -3.7783 N.am    
  17 S17           -3.9602     2.4889    -5.2623 S.o2    
  18 O18           -3.5453     3.7212    -5.8354 O.2     
  19 O19           -3.7547     1.2312    -5.8909 O.2     
  20 C20            2.5326    -2.6155    -0.0364 C.2     
  21 C21            3.5213    -1.7288    -0.1497 C.2     
  22 S22            2.8835    -0.0941    -0.0942 S.3     
  23 O23            2.7603    -3.9586    -0.0451 O.3     
  24 C24            2.6516    -4.6143    -1.2251 C.ar    
  25 N25            2.9658    -5.8988    -1.2813 N.ar    
  26 N26            2.2287    -3.9563    -2.2928 N.ar    
  27 C27            2.1110    -4.5663    -3.4607 C.ar    
  28 C28            2.4368    -5.9101    -3.5570 C.ar    
  29 C29            2.8710    -6.5693    -2.4177 C.ar    
  30 N30           -5.5901     2.6201    -5.0006 N.am    
  31 C31           -6.1312     3.8049    -4.3299 C.3     
  32 H32            1.0146     1.8822     0.0733 H       
  33 H33           -0.6110     1.8536    -0.6511 H       
  34 H34           -0.4257     1.8730     1.1191 H       
  35 H35           -2.1982     2.0174    -1.3761 H       
  36 H36           -3.1156    -0.5395     1.1262 H       
  37 H37           -2.2893     1.0155     0.8663 H       
  38 H38           -4.1783    -1.7190    -0.7554 H       
  39 H39           -5.2074    -1.4818    -2.9757 H       
  40 H40           -2.6368     3.1022    -3.4841 H       
  41 H41            4.5663    -1.9801    -0.2558 H       
  42 H42            1.7651    -4.0241    -4.3283 H       
  43 H43            2.3498    -6.4331    -4.4980 H       
  44 H44            3.1328    -7.6163    -2.4582 H       
  45 H45           -6.1865     1.9125    -5.2913 H       
  46 H46           -7.2142     3.7129    -4.2477 H       
  47 H47           -5.6970     3.8886    -3.3337 H       
  48 H48           -5.8851     4.6946    -4.9095 H       
@<TRIPOS>BOND
   1    1    5 1
   2    1   32 1
   3    1   33 1
   4    1   34 1
   5    2   10 ar
   6    2   13 ar
   7    2   35 1
   8    3    4 2
   9    3    5 1
  10    3   22 1
  11    4   20 1
  12    4    8 1
  13    5    6 2
  14    6    7 1
  15    6    9 1
  16    7    8 1
  17    7   12 2
  18    9   10 1
  19    9   36 1
  20    9   37 1
  21   10   11 ar
  22   11   15 ar
  23   11   38 1
  24   13   14 ar
  25   13   16 1
  26   14   15 ar
  27   15   39 1
  28   16   17 am
  29   16   40 1
  30   17   18 2
  31   17   19 2
  32   17   30 am
  33   20   21 2
  34   20   23 1
  35   21   22 1
  36   21   41 1
  37   23   24 1
  38   24   25 ar
  39   24   26 ar
  40   25   29 ar
  41   26   27 ar
  42   27   28 ar
  43   27   42 1
  44   28   29 ar
  45   28   43 1
  46   29   44 1
  47   30   31 1
  48   30   45 1
  49   31   46 1
  50   31   47 1
  51   31   48 1

#	End of record

