#	Name: ASD01150321
#	Creating user name:	WinNT
#	Creation time:	15. 06. 2019 19:04

#	Modifying user name:	WinNT
#	Modification time:	15. 06. 2019 19:04

#	Program:	/corina/corina34_cracker 3.40 0067  02.08.2006

@<TRIPOS>MOLECULE
ASD01150321
  64   66    0    0    0
SMALL
NO_CHARGES


@<TRIPOS>ATOM
   1 N1            -0.0169     1.3927     0.0097 N.pl3   
   2 C2             0.0021    -0.0041     0.0020 C.2     
   3 C3            -1.3282    -0.4052     0.0134 C.2     
   4 N4            -2.0858     0.6950     0.0270 N.2     
   5 C5            -1.3234     1.7683     0.0302 C.2     
   6 C6             1.1389    -0.8368    -0.0144 C.2     
   7 C7             1.0965     2.2429     0.0036 C.ar    
   8 C8             1.3307     3.0746    -1.0833 C.ar    
   9 C9             2.4290     3.9121    -1.0861 C.ar    
  10 C10            3.2948     3.9229    -0.0079 C.ar    
  11 C11            3.0644     3.0955     1.0758 C.ar    
  12 C12            1.9648     2.2599     1.0870 C.ar    
  13 N13           -1.7777     3.0669     0.0437 N.3     
  14 C14           -3.2460     3.1108     0.0538 C.3     
  15 C15           -1.2210     3.8075     1.1836 C.3     
  16 O16            1.0069    -2.0474    -0.0195 O.2     
  17 O17            2.3747    -0.2923    -0.0246 O.3     
  18 C18            3.4817    -1.1958    -0.0411 C.3     
  19 C19            3.4075    -2.0704    -1.2943 C.3     
  20 C20            4.7889    -0.4008    -0.0506 C.3     
  21 C21            3.4339    -2.0838     1.2040 C.3     
  22 N22           -1.7882    -1.7164     0.0107 N.am    
  23 C23           -3.1126    -1.9659     0.0229 C.2     
  24 C24           -3.6005    -3.3565     0.0199 C.ar    
  25 O25           -3.9050    -1.0436     0.0363 O.2     
  26 C26           -2.6929    -4.4192     0.0045 C.ar    
  27 C27           -3.1542    -5.7167     0.0018 C.ar    
  28 C28           -4.5181    -5.9746     0.0143 C.ar    
  29 C29           -5.4268    -4.9309     0.0292 C.ar    
  30 C30           -4.9781    -3.6203     0.0384 C.ar    
  31 O31           -5.8675    -2.5960     0.0530 O.3     
  32 F32           -4.9607    -7.2510     0.0115 F       
  33 O33            5.8958    -1.3043    -0.0671 O.3     
  34 C34            7.1715    -0.6605    -0.0771 C.3     
  35 C35           -7.2542    -2.9410     0.0582 C.3     
  36 H36            0.6551     3.0664    -1.9258 H       
  37 H37            2.6119     4.5590    -1.9314 H       
  38 H38            4.1529     4.5787    -0.0124 H       
  39 H39            3.7428     3.1057     1.9161 H       
  40 H40            1.7854     1.6139     1.9338 H       
  41 H41           -3.6186     2.6009     0.9422 H       
  42 H42           -3.5784     4.1489     0.0644 H       
  43 H43           -3.6305     2.6153    -0.8376 H       
  44 H44           -0.1333     3.8185     1.1135 H       
  45 H45           -1.5963     4.8308     1.1703 H       
  46 H46           -1.5203     3.3228     2.1129 H       
  47 H47            3.4416    -1.4378    -2.1813 H       
  48 H48            4.2519    -2.7596    -1.3069 H       
  49 H49            2.4763    -2.6368    -1.2875 H       
  50 H50            4.8229     0.2318    -0.9376 H       
  51 H51            4.8417     0.2222     0.8422 H       
  52 H52            2.5026    -2.6502     1.2108 H       
  53 H53            4.2782    -2.7730     1.1914 H       
  54 H54            3.4867    -1.4607     2.0968 H       
  55 H55           -1.1561    -2.4521    -0.0000 H       
  56 H56           -1.6309    -4.2230    -0.0056 H       
  57 H57           -2.4519    -6.5371    -0.0105 H       
  58 H58           -6.4866    -5.1384     0.0382 H       
  59 H59            7.2550    -0.0333    -0.9647 H       
  60 H60            7.2738    -0.0428     0.8152 H       
  61 H61            7.9588    -1.4142    -0.0895 H       
  62 H62           -7.8549    -2.0315     0.0700 H       
  63 H63           -7.4881    -3.5193    -0.8357 H       
  64 H64           -7.4775    -3.5354     0.9442 H       
@<TRIPOS>BOND
   1    1    2 1
   2    1    7 1
   3    1    5 1
   4    2    3 2
   5    2    6 1
   6    3    4 1
   7    3   22 1
   8    4    5 2
   9    5   13 1
  10    6   16 2
  11    6   17 1
  12    7    8 ar
  13    7   12 ar
  14    8    9 ar
  15    8   36 1
  16    9   10 ar
  17    9   37 1
  18   10   11 ar
  19   10   38 1
  20   11   12 ar
  21   11   39 1
  22   12   40 1
  23   13   14 1
  24   13   15 1
  25   14   41 1
  26   14   42 1
  27   14   43 1
  28   15   44 1
  29   15   45 1
  30   15   46 1
  31   17   18 1
  32   18   19 1
  33   18   20 1
  34   18   21 1
  35   19   47 1
  36   19   48 1
  37   19   49 1
  38   20   33 1
  39   20   50 1
  40   20   51 1
  41   21   52 1
  42   21   53 1
  43   21   54 1
  44   22   23 am
  45   22   55 1
  46   23   24 1
  47   23   25 2
  48   24   26 ar
  49   24   30 ar
  50   26   27 ar
  51   26   56 1
  52   27   28 ar
  53   27   57 1
  54   28   29 ar
  55   28   32 1
  56   29   30 ar
  57   29   58 1
  58   30   31 1
  59   31   35 1
  60   33   34 1
  61   34   59 1
  62   34   60 1
  63   34   61 1
  64   35   62 1
  65   35   63 1
  66   35   64 1

#	End of record

