#	Name: ASD01811646
#	Creating user name:	WinNT
#	Creation time:	15. 06. 2019 19:27

#	Modifying user name:	WinNT
#	Modification time:	15. 06. 2019 19:27

#	Program:	/corina/corina34_cracker 3.40 0067  02.08.2006

@<TRIPOS>MOLECULE
ASD01811646
  65   70    0    0    0
SMALL
NO_CHARGES


@<TRIPOS>ATOM
   1 C1            -0.0167     1.3785     0.0096 C.ar    
   2 C2             0.0021    -0.0041     0.0020 C.ar    
   3 C3             1.2025    -0.6832    -0.0125 C.ar    
   4 C4             2.4063     0.0194    -0.0197 C.ar    
   5 C5             2.3760     1.4106    -0.0126 C.ar    
   6 C6             1.1736     2.0838     0.0020 C.ar    
   7 N7             3.7228    -0.4427    -0.0336 N.pl3   
   8 C8             4.6291     0.6111    -0.0367 C.2     
   9 C9             3.8064     1.8709    -0.0234 C.3     
  10 C10            4.1075     2.7504    -1.2399 C.3     
  11 N11            4.5464     4.0652    -0.7168 N.3     
  12 C12            5.0912     3.8011     0.6404 C.3     
  13 C13            4.1261     2.7289     1.2112 C.3     
  14 C14            5.5677     4.6636    -1.5868 C.3     
  15 C15            4.9910     4.8623    -2.9910 C.3     
  16 O16            5.9668     5.4973    -3.8197 O.3     
  17 C17            6.3653     6.7920    -3.3646 C.3     
  18 C18            6.9972     6.6708    -1.9754 C.3     
  19 C19            5.9907     6.0224    -1.0200 C.3     
  20 C20            5.9464     0.5242    -0.0488 C.2     
  21 C21            4.1014    -1.8579    -0.0433 C.3     
  22 C22            4.2190    -2.3367    -1.4674 C.ar    
  23 C23            5.3642    -2.0600    -2.1967 C.ar    
  24 C24            5.4760    -2.4979    -3.5030 C.ar    
  25 C25            4.4350    -3.2177    -4.0846 C.ar    
  26 C26            3.2865    -3.4925    -3.3460 C.ar    
  27 C27            3.1862    -3.0555    -2.0402 C.ar    
  28 F28            6.3724    -1.3612    -1.6305 F       
  29 C29            4.5491    -3.6903    -5.4875 C.2     
  30 C30            5.6454    -3.4865    -6.3479 C.2     
  31 N31            5.3718    -4.0501    -7.4946 N.2     
  32 N32            4.1006    -4.6312    -7.4125 N.pl3   
  33 C33            3.6134    -4.4060    -6.1757 C.2     
  34 C34            3.4198    -5.3625    -8.4839 C.3     
  35 H35           -0.9586     1.9067     0.0169 H       
  36 H36           -0.9271    -0.5545     0.0078 H       
  37 H37            1.2098    -1.7631    -0.0180 H       
  38 H38            1.1604     3.1637     0.0076 H       
  39 H39            4.9021     2.3023    -1.8366 H       
  40 H40            3.2088     2.8707    -1.8448 H       
  41 H41            6.1066     3.4098     0.5775 H       
  42 H42            5.0637     4.7055     1.2482 H       
  43 H43            3.2214     3.1931     1.6040 H       
  44 H44            4.6205     2.1331     1.9784 H       
  45 H45            6.4339     4.0040    -1.6387 H       
  46 H46            4.7278     3.8938    -3.4162 H       
  47 H47            4.1005     5.4882    -2.9330 H       
  48 H48            7.0920     7.2136    -4.0589 H       
  49 H49            5.4928     7.4432    -3.3115 H       
  50 H50            7.8929     6.0526    -2.0353 H       
  51 H51            7.2617     7.6623    -1.6078 H       
  52 H52            5.1156     6.6647    -0.9214 H       
  53 H53            6.4535     5.8819    -0.0432 H       
  54 H54            6.4236    -0.4446    -0.0580 H       
  55 H55            6.5468     1.4219    -0.0494 H       
  56 H56            5.0595    -1.9811     0.4617 H       
  57 H57            3.3400    -2.4412     0.4744 H       
  58 H58            6.3685    -2.2820    -4.0717 H       
  59 H59            2.4768    -4.0500    -3.7931 H       
  60 H60            2.2958    -3.2689    -1.4675 H       
  61 H61            6.5538    -2.9562    -6.1027 H       
  62 H62            2.6535    -4.7282    -5.7999 H       
  63 H63            3.6727    -6.4208    -8.4191 H       
  64 H64            2.3418    -5.2396    -8.3796 H       
  65 H65            3.7382    -4.9714    -9.4501 H       
@<TRIPOS>BOND
   1    1    2 ar
   2    1    6 ar
   3    1   35 1
   4    2    3 ar
   5    2   36 1
   6    3    4 ar
   7    3   37 1
   8    4    5 ar
   9    4    7 1
  10    5    6 ar
  11    5    9 1
  12    6   38 1
  13    7    8 1
  14    7   21 1
  15    8    9 1
  16    8   20 2
  17    9   10 1
  18    9   13 1
  19   10   11 1
  20   10   39 1
  21   10   40 1
  22   11   12 1
  23   11   14 1
  24   12   13 1
  25   12   41 1
  26   12   42 1
  27   13   43 1
  28   13   44 1
  29   14   15 1
  30   14   19 1
  31   14   45 1
  32   15   16 1
  33   15   46 1
  34   15   47 1
  35   16   17 1
  36   17   18 1
  37   17   48 1
  38   17   49 1
  39   18   19 1
  40   18   50 1
  41   18   51 1
  42   19   52 1
  43   19   53 1
  44   20   54 1
  45   20   55 1
  46   21   22 1
  47   21   56 1
  48   21   57 1
  49   22   23 ar
  50   22   27 ar
  51   23   24 ar
  52   23   28 1
  53   24   25 ar
  54   24   58 1
  55   25   26 ar
  56   25   29 1
  57   26   27 ar
  58   26   59 1
  59   27   60 1
  60   29   30 1
  61   29   33 2
  62   30   31 2
  63   30   61 1
  64   31   32 1
  65   32   33 1
  66   32   34 1
  67   33   62 1
  68   34   63 1
  69   34   64 1
  70   34   65 1

#	End of record

