#	Name: ASD01914000
#	Creating user name:	WinNT
#	Creation time:	15. 06. 2019 20:02

#	Modifying user name:	WinNT
#	Modification time:	15. 06. 2019 20:02

#	Program:	/corina/corina34_cracker 3.40 0067  02.08.2006

@<TRIPOS>MOLECULE
ASD01914000
  35   37    0    0    0
SMALL
NO_CHARGES


@<TRIPOS>ATOM
   1 C1             1.1256     3.2459     0.0119 C.2     
   2 O2             2.1676     3.8662     0.0108 O.2     
   3 N3             1.1435     1.8983     0.0013 N.am    
   4 C4             2.3544     1.2183    -0.1191 C.ar    
   5 C5             2.3766    -0.1693    -0.0212 C.ar    
   6 C6             3.5829    -0.8390    -0.1417 C.ar    
   7 C7             4.7340    -0.0986    -0.3572 C.ar    
   8 C8             4.6432     1.2895    -0.4455 C.ar    
   9 N9             3.4679     1.8990    -0.3305 N.ar    
  10 C10            5.8261     2.0654    -0.6681 C.1     
  11 C11            6.7958     2.7014    -0.8505 C.1     
  12 C12            8.0117     3.4989    -1.0792 C.3     
  13 C13            7.6450     4.9832    -1.1359 C.3     
  14 N14            9.2952     6.0859    -2.5334 N.2     
  15 N15            8.8551     5.7769    -1.3635 N.pl3   
  16 N16            9.5921     6.2408    -0.4151 N.2     
  17 C17           10.6021     6.9104    -0.9468 C.ar    
  18 C18           10.3985     6.8041    -2.3993 C.ar    
  19 C19           11.3227     7.4229    -3.2594 C.ar    
  20 C20           12.3762     8.1005    -2.7333 C.ar    
  21 C21           12.5696     8.2009    -1.3551 C.ar    
  22 C22           11.7138     7.6269    -0.4699 C.ar    
  23 H23            0.1832     3.7732     0.0257 H       
  24 H24            0.3139     1.4015     0.0776 H       
  25 H25            1.4623    -0.7188     0.1476 H       
  26 H26            3.6254    -1.9157    -0.0689 H       
  27 H27            5.6902    -0.5910    -0.4552 H       
  28 H28            8.7159     3.3295    -0.2647 H       
  29 H29            8.4692     3.2014    -2.0228 H       
  30 H30            6.9407     5.1527    -1.9504 H       
  31 H31            7.1875     5.2807    -0.1923 H       
  32 H32           11.1964     7.3596    -4.3301 H       
  33 H33           13.0826     8.5736    -3.3993 H       
  34 H34           13.4218     8.7497    -0.9823 H       
  35 H35           11.8862     7.7200     0.5922 H       
@<TRIPOS>BOND
   1    1    2 2
   2    1    3 am
   3    1   23 1
   4    3    4 1
   5    3   24 1
   6    4    5 ar
   7    4    9 ar
   8    5    6 ar
   9    5   25 1
  10    6    7 ar
  11    6   26 1
  12    7    8 ar
  13    7   27 1
  14    8    9 ar
  15    8   10 1
  16   10   11 3
  17   11   12 1
  18   12   13 1
  19   12   28 1
  20   12   29 1
  21   13   15 1
  22   13   30 1
  23   13   31 1
  24   14   15 1
  25   14   18 2
  26   15   16 1
  27   16   17 2
  28   17   18 ar
  29   17   22 ar
  30   18   19 ar
  31   19   20 ar
  32   19   32 1
  33   20   21 ar
  34   20   33 1
  35   21   22 ar
  36   21   34 1
  37   22   35 1

#	End of record

