#	Name: ASD01911934
#	Creating user name:	WinNT
#	Creation time:	15. 06. 2019 19:58

#	Modifying user name:	WinNT
#	Modification time:	15. 06. 2019 19:58

#	Program:	/corina/corina34_cracker 3.40 0067  02.08.2006

@<TRIPOS>MOLECULE
ASD01911934
  36   38    0    0    0
SMALL
NO_CHARGES


@<TRIPOS>ATOM
   1 C1             0.3862     0.1168    -1.8440 C.ar    
   2 C2            -0.0958     0.0069    -0.5436 C.ar    
   3 C3             0.5952     0.6588     0.4728 C.ar    
   4 N4             1.6781     1.3549     0.1688 N.ar    
   5 C5             2.1033     1.4351    -1.0761 C.ar    
   6 N6             1.4765     0.8320    -2.0662 N.ar    
   7 O7            -1.2130    -0.7181    -0.2732 O.3     
   8 C8            -1.1024    -2.0725    -0.2402 C.ar    
   9 C9            -2.2201    -2.8549     0.0219 C.ar    
  10 C10           -2.1075    -4.2351     0.0561 C.ar    
  11 C11           -0.8818    -4.8365    -0.1708 C.ar    
  12 C12            0.2369    -4.0569    -0.4330 C.ar    
  13 C13            0.1243    -2.6738    -0.4736 C.ar    
  14 N14            1.4761    -4.6654    -0.6618 N.am    
  15 C15            2.6112    -4.0474    -0.2795 C.2     
  16 C16            3.9226    -4.6393    -0.6129 C.ar    
  17 O17            2.5555    -3.0026     0.3398 O.2     
  18 C18            5.1027    -3.9990    -0.2168 C.ar    
  19 F19           -3.1950    -4.9949     0.3116 F       
  20 C20            6.3322    -4.5539    -0.5299 C.ar    
  21 C21            6.4018    -5.7384    -1.2319 C.ar    
  22 C22            5.2300    -6.3879    -1.6334 C.ar    
  23 C23            3.9886    -5.8396    -1.3176 C.ar    
  24 C24            5.3059    -7.6175    -2.3633 C.1     
  25 F25           -3.4172    -2.2694     0.2440 F       
  26 F26            5.0421    -2.8381     0.4715 F       
  27 N27            5.3661    -8.5930    -2.9424 N.1     
  28 H28           -0.1199    -0.3783    -2.6596 H       
  29 H29            0.2522     0.5977     1.4951 H       
  30 H30            2.9908     2.0118    -1.2911 H       
  31 H31           -0.7953    -5.9127    -0.1435 H       
  32 H32            0.9938    -2.0665    -0.6775 H       
  33 H33            1.5182    -5.5320    -1.0956 H       
  34 H34            7.2405    -4.0566    -0.2231 H       
  35 H35            7.3639    -6.1658    -1.4729 H       
  36 H36            3.0814    -6.3381    -1.6258 H       
@<TRIPOS>BOND
   1    1    2 ar
   2    1    6 ar
   3    1   28 1
   4    2    3 ar
   5    2    7 1
   6    3    4 ar
   7    3   29 1
   8    4    5 ar
   9    5    6 ar
  10    5   30 1
  11    7    8 1
  12    8    9 ar
  13    8   13 ar
  14    9   10 ar
  15    9   25 1
  16   10   11 ar
  17   10   19 1
  18   11   12 ar
  19   11   31 1
  20   12   13 ar
  21   12   14 1
  22   13   32 1
  23   14   15 am
  24   14   33 1
  25   15   16 1
  26   15   17 2
  27   16   18 ar
  28   16   23 ar
  29   18   20 ar
  30   18   26 1
  31   20   21 ar
  32   20   34 1
  33   21   22 ar
  34   21   35 1
  35   22   23 ar
  36   22   24 1
  37   23   36 1
  38   24   27 3

#	End of record

