#	Name: ASD05323003
#	Creating user name:	WinNT
#	Creation time:	15. 06. 2019 20:59

#	Modifying user name:	WinNT
#	Modification time:	15. 06. 2019 20:59

#	Program:	/corina/corina34_cracker 3.40 0067  02.08.2006

@<TRIPOS>MOLECULE
ASD05323003
  71   75    0    0    0
SMALL
NO_CHARGES


@<TRIPOS>ATOM
   1 C1            -0.0187     1.5258     0.0104 C.3     
   2 C2             0.0021    -0.0041     0.0020 C.3     
   3 P3             1.6916     2.1568    -0.0025 P.3     
   4 O4             2.4039     1.7481    -1.3873 O.3     
   5 O5             1.6730     3.7605     0.1386 O.3     
   6 O6             2.4423     1.5705     1.1303 O.2     
   7 O7            -3.6873    -2.5652     0.5221 O.3     
   8 C8            -2.8362    -3.1693     1.5180 C.3     
   9 O9            -1.5540    -2.5338     1.3855 O.3     
  10 C10           -1.4413    -2.0811     0.0271 C.3     
  11 C11           -2.8179    -2.4094    -0.6232 C.3     
  12 O12           -2.1070    -0.1960    -1.2175 O.3     
  13 C13           -1.4333    -0.5336     0.0129 C.3     
  14 C14           -3.2036    -1.1135    -1.3597 C.3     
  15 C15           -3.4046    -2.9214     2.9167 C.3     
  16 C16           -2.7082    -4.6719     1.2596 C.3     
  17 C17           -2.4132    -1.8250    -3.5380 C.2     
  18 N18           -2.5678    -2.1007    -4.8449 N.am    
  19 C19           -3.7725    -1.9512    -5.4347 C.2     
  20 C20           -4.9027    -1.4841    -4.6206 C.2     
  21 C21           -4.6839    -1.2211    -3.3005 C.2     
  22 N22           -3.4345    -1.3971    -2.7784 N.am    
  23 C23           -6.4396    -0.3388    -6.1920 C.ar    
  24 C24           -6.2466    -1.3027    -5.2191 C.ar    
  25 C25           -7.3133    -2.1112    -4.7937 C.ar    
  26 C26           -8.5541    -1.9648    -5.3263 C.ar    
  27 C27           -8.7836    -0.9937    -6.3171 C.ar    
  28 C28          -10.0579    -0.8230    -6.8841 C.ar    
  29 C29          -10.2488     0.1253    -7.8417 C.ar    
  30 C30           -9.1978     0.9335    -8.2715 C.ar    
  31 C31           -7.9500     0.7977    -7.7460 C.ar    
  32 C32           -7.7141    -0.1715    -6.7544 C.ar    
  33 O33           -3.9196    -2.1982    -6.6176 O.2     
  34 O34           -1.3190    -1.9720    -3.0285 O.2     
  35 C35            3.7827     2.0069    -1.6593 C.3     
  36 C36            4.1320     1.4930    -3.0574 C.3     
  37 C37            2.8611     4.5445     0.2648 C.3     
  38 C38            2.4864     6.0236     0.3778 C.3     
  39 H39           -0.5990    -2.5276    -0.5013 H       
  40 H40           -2.7936    -3.2893    -1.2662 H       
  41 H41           -0.5459     1.8868    -0.8726 H       
  42 H42           -0.5289     1.8773     0.9072 H       
  43 H43            0.5123    -0.3556    -0.8948 H       
  44 H44            0.5293    -0.3651     0.8851 H       
  45 H45           -1.9808    -0.1403     0.8694 H       
  46 H46           -4.1028    -0.6879    -0.9142 H       
  47 H47           -4.3906    -3.3795     2.9946 H       
  48 H48           -2.7405    -3.3597     3.6617 H       
  49 H49           -3.4876    -1.8485     3.0902 H       
  50 H50           -2.2993    -4.8356     0.2626 H       
  51 H51           -2.0430    -5.1129     2.0020 H       
  52 H52           -3.6912    -5.1377     1.3302 H       
  53 H53           -1.8099    -2.4081    -5.3664 H       
  54 H54           -5.4923    -0.8759    -2.6731 H       
  55 H55           -5.6171     0.2832    -6.5129 H       
  56 H56           -7.1446    -2.8594    -4.0333 H       
  57 H57           -9.3643    -2.5944    -4.9891 H       
  58 H58          -10.8822    -1.4419    -6.5617 H       
  59 H59          -11.2296     0.2532    -8.2753 H       
  60 H60           -9.3763     1.6782    -9.0331 H       
  61 H61           -7.1448     1.4306    -8.0888 H       
  62 H62            3.9676     3.0800    -1.6100 H       
  63 H63            4.4008     1.4974    -0.9200 H       
  64 H64            5.1837     1.6904    -3.2649 H       
  65 H65            3.9471     0.4199    -3.1068 H       
  66 H66            3.5139     2.0025    -3.7967 H       
  67 H67            3.4053     4.2382     1.1582 H       
  68 H68            3.4900     4.3950    -0.6129 H       
  69 H69            1.9422     6.3298    -0.5155 H       
  70 H70            1.8575     6.1730     1.2555 H       
  71 H71            3.3926     6.6216     0.4741 H       
@<TRIPOS>BOND
   1    1    2 1
   2    1    3 1
   3    1   41 1
   4    1   42 1
   5    2   13 1
   6    2   43 1
   7    2   44 1
   8    3    4 1
   9    3    5 1
  10    3    6 2
  11    4   35 1
  12    5   37 1
  13    7    8 1
  14    7   11 1
  15    8    9 1
  16    8   15 1
  17    8   16 1
  18    9   10 1
  19   10   11 1
  20   10   39 1
  21   10   13 1
  22   11   40 1
  23   11   14 1
  24   12   13 1
  25   12   14 1
  26   13   45 1
  27   14   22 1
  28   14   46 1
  29   15   47 1
  30   15   48 1
  31   15   49 1
  32   16   50 1
  33   16   51 1
  34   16   52 1
  35   17   18 am
  36   17   22 am
  37   17   34 2
  38   18   19 am
  39   18   53 1
  40   19   20 1
  41   19   33 2
  42   20   21 2
  43   20   24 1
  44   21   22 1
  45   21   54 1
  46   23   24 ar
  47   23   32 ar
  48   23   55 1
  49   24   25 ar
  50   25   26 ar
  51   25   56 1
  52   26   27 ar
  53   26   57 1
  54   27   28 ar
  55   27   32 ar
  56   28   29 ar
  57   28   58 1
  58   29   30 ar
  59   29   59 1
  60   30   31 ar
  61   30   60 1
  62   31   32 ar
  63   31   61 1
  64   35   36 1
  65   35   62 1
  66   35   63 1
  67   36   64 1
  68   36   65 1
  69   36   66 1
  70   37   38 1
  71   37   67 1
  72   37   68 1
  73   38   69 1
  74   38   70 1
  75   38   71 1

#	End of record

