#	Name: ASD04882225
#	Creating user name:	WinNT
#	Creation time:	15. 06. 2019 20:54

#	Modifying user name:	WinNT
#	Modification time:	15. 06. 2019 20:54

#	Program:	/corina/corina34_cracker 3.40 0067  02.08.2006

@<TRIPOS>MOLECULE
ASD04882225
  83   87    0    0    0
SMALL
NO_CHARGES


@<TRIPOS>ATOM
   1 N1            -0.1370     1.5565    -0.0348 N.am    
   2 C2            -0.0772     0.1565    -0.0449 C.ar    
   3 C3            -1.2537    -0.5942     0.0290 C.ar    
   4 C4            -1.1959    -1.9832     0.0186 C.ar    
   5 C5             0.0201    -2.6243    -0.0647 C.ar    
   6 C6             1.2005    -1.8795    -0.1385 C.ar    
   7 C7             1.1448    -0.4829    -0.1339 C.ar    
   8 N8            -2.4854     0.0498     0.1138 N.3     
   9 C9            -2.6127     0.7778     1.3841 C.3     
  10 C10           -3.5909    -0.9032    -0.0568 C.3     
  11 C11           -4.9210    -0.1464    -0.0368 C.3     
  12 N12           -5.0484     0.5816     1.2335 N.3     
  13 C13           -3.9428     1.5346     1.4041 C.3     
  14 C14           -6.2838     1.2276     1.3185 C.ar    
  15 C15            2.5031    -2.5665    -0.2267 C.2     
  16 O16            3.5295    -1.9177    -0.2909 O.2     
  17 C17            0.8441     2.2686     0.5542 C.2     
  18 O18            1.7269     1.6976     1.1658 O.2     
  19 C19           -6.6357     2.1842     0.3744 C.ar    
  20 C20           -7.1657     0.9111     2.3438 C.ar    
  21 C21           -8.3866     1.5519     2.4249 C.ar    
  22 C22           -8.7314     2.5072     1.4867 C.ar    
  23 C23           -7.8578     2.8210     0.4615 C.ar    
  24 C24            0.8472     3.7390     0.4573 C.2     
  25 N25            2.5554    -3.9132    -0.2362 N.am    
  26 C26            3.8489    -4.5954    -0.3238 C.3     
  27 C27            3.6285    -6.1094    -0.3163 C.3     
  28 C28            4.9794    -6.8219    -0.4078 C.3     
  29 N29            4.7684    -8.2716    -0.4005 N.am    
  30 C30            4.5701    -9.0856    -1.6055 C.3     
  31 C31            3.9673   -10.4181    -1.1081 C.3     
  32 C32            4.4860   -10.4750     0.3474 C.3     
  33 C33            4.7372    -9.0280     0.7103 C.2     
  34 O34            4.8820    -8.6101     1.8395 O.2     
  35 C35           -6.7911    -0.1307     3.3662 C.3     
  36 C36            1.8320     4.6657     1.0343 C.2     
  37 C37            1.4270     5.8971     0.6879 C.2     
  38 O38            0.3014     5.8022    -0.0369 O.3     
  39 C39           -0.0599     4.5246    -0.1917 C.2     
  40 C40            2.1243     7.1817     1.0548 C.3     
  41 C41            3.1455     7.5351    -0.0284 C.3     
  42 C42            3.8534     8.8393     0.3441 C.3     
  43 H43           -0.8824     2.0132    -0.4551 H       
  44 H44           -2.1067    -2.5608     0.0762 H       
  45 H45            0.0617    -3.7035    -0.0726 H       
  46 H46            2.0552     0.0952    -0.1911 H       
  47 H47           -2.5842     0.0705     2.2129 H       
  48 H48           -1.7898     1.4860     1.4814 H       
  49 H49           -3.4812    -1.4205    -1.0099 H       
  50 H50           -3.5735    -1.6296     0.7557 H       
  51 H51           -4.9495     0.5609    -0.8657 H       
  52 H52           -5.7439    -0.8546    -0.1341 H       
  53 H53           -4.0525     2.0519     2.3572 H       
  54 H54           -3.9602     2.2610     0.5916 H       
  55 H55           -5.9539     2.4297    -0.4264 H       
  56 H56           -9.0728     1.3062     3.2219 H       
  57 H57           -9.6869     3.0062     1.5521 H       
  58 H58           -8.1302     3.5677    -0.2697 H       
  59 H59            1.7366    -4.4308    -0.1850 H       
  60 H60            4.3505    -4.3059    -1.2472 H       
  61 H61            4.4666    -4.3139     0.5290 H       
  62 H62            3.1269    -6.3990     0.6071 H       
  63 H63            3.0108    -6.3910    -1.1690 H       
  64 H64            5.4811    -6.5324    -1.3311 H       
  65 H65            5.5971    -6.5404     0.4450 H       
  66 H66            3.8783    -8.5895    -2.2862 H       
  67 H67            5.5243    -9.2649    -2.1008 H       
  68 H68            2.8780   -10.3869    -1.1331 H       
  69 H69            4.3453   -11.2586    -1.6901 H       
  70 H70            3.7330   -10.9107     1.0041 H       
  71 H71            5.4143   -11.0441     0.3996 H       
  72 H72           -6.2785     0.3473     4.2010 H       
  73 H73           -7.6925    -0.6251     3.7283 H       
  74 H74           -6.1312    -0.8680     2.9088 H       
  75 H75            2.7033     4.4079     1.6181 H       
  76 H76           -0.9265     4.1743    -0.7327 H       
  77 H77            1.3900     7.9830     1.1371 H       
  78 H78            2.6354     7.0578     2.0095 H       
  79 H79            3.8798     6.7338    -0.1107 H       
  80 H80            2.6343     7.6590    -0.9831 H       
  81 H81            4.5809     9.0911    -0.4276 H       
  82 H82            3.1190     9.6406     0.4264 H       
  83 H83            4.3645     8.7154     1.2988 H       
@<TRIPOS>BOND
   1    1    2 1
   2    1   17 am
   3    1   43 1
   4    2    3 ar
   5    2    7 ar
   6    3    4 ar
   7    3    8 1
   8    4    5 ar
   9    4   44 1
  10    5    6 ar
  11    5   45 1
  12    6    7 ar
  13    6   15 1
  14    7   46 1
  15    8    9 1
  16    8   10 1
  17    9   13 1
  18    9   47 1
  19    9   48 1
  20   10   11 1
  21   10   49 1
  22   10   50 1
  23   11   12 1
  24   11   51 1
  25   11   52 1
  26   12   13 1
  27   12   14 1
  28   13   53 1
  29   13   54 1
  30   14   19 ar
  31   14   20 ar
  32   15   16 2
  33   15   25 am
  34   17   18 2
  35   17   24 1
  36   19   23 ar
  37   19   55 1
  38   20   21 ar
  39   20   35 1
  40   21   22 ar
  41   21   56 1
  42   22   23 ar
  43   22   57 1
  44   23   58 1
  45   24   36 1
  46   24   39 2
  47   25   26 1
  48   25   59 1
  49   26   27 1
  50   26   60 1
  51   26   61 1
  52   27   28 1
  53   27   62 1
  54   27   63 1
  55   28   29 1
  56   28   64 1
  57   28   65 1
  58   29   30 1
  59   29   33 am
  60   30   31 1
  61   30   66 1
  62   30   67 1
  63   31   32 1
  64   31   68 1
  65   31   69 1
  66   32   33 1
  67   32   70 1
  68   32   71 1
  69   33   34 2
  70   35   72 1
  71   35   73 1
  72   35   74 1
  73   36   37 2
  74   36   75 1
  75   37   38 1
  76   37   40 1
  77   38   39 1
  78   39   76 1
  79   40   41 1
  80   40   77 1
  81   40   78 1
  82   41   42 1
  83   41   79 1
  84   41   80 1
  85   42   81 1
  86   42   82 1
  87   42   83 1

#	End of record

