#	Name: ASD01883722
#	Creating user name:	WinNT
#	Creation time:	15. 06. 2019 19:46

#	Modifying user name:	WinNT
#	Modification time:	15. 06. 2019 19:46

#	Program:	/corina/corina34_cracker 3.40 0067  02.08.2006

@<TRIPOS>MOLECULE
ASD01883722
  52   56    0    0    0
SMALL
NO_CHARGES


@<TRIPOS>ATOM
   1 C1            -0.4070     0.7384    -1.1126 C.2     
   2 C2             0.0021    -0.0041     0.0020 C.2     
   3 C3            -0.8269    -0.0436     1.1386 C.2     
   4 C4            -1.9989     0.6181     1.1665 C.2     
   5 N5            -2.4375     1.3532     0.1042 N.pl3   
   6 C6            -1.6865     1.4486    -1.0387 C.2     
   7 C7            -3.5720     2.0988    -0.1027 C.2     
   8 C8            -3.4873     2.6148    -1.3454 C.2     
   9 N9            -2.3372     2.2111    -1.8983 N.2     
  10 C10           -4.7001     2.3019     0.8756 C.3     
  11 C11           -5.8073     1.2838     0.5958 C.3     
  12 N12            1.2030    -0.6889    -0.0141 N.pl3   
  13 F13           -5.2964    -0.0110     0.7355 F       
  14 F14           -6.8546     1.4723     1.5040 F       
  15 F15           -6.2834     1.4591    -0.7080 F       
  16 C16            1.2304    -2.1544     0.0880 C.3     
  17 C17            2.1602    -2.5506     1.2395 C.3     
  18 C18            3.5315    -1.9080     1.0265 C.3     
  19 C19            3.3930    -0.3852     1.0191 C.3     
  20 C20            2.4755     0.0347    -0.1397 C.3     
  21 C21            4.4753    -2.3310     2.1580 C.3     
  22 C22            4.5057    -3.8606     2.2126 C.3     
  23 C23            4.7111    -4.4150     0.8256 C.ar    
  24 C24            4.4891    -3.6430    -0.3010 C.ar    
  25 O25            4.0828    -2.3493    -0.2137 O.3     
  26 C26            5.1304    -5.7281     0.6889 C.ar    
  27 C27            5.3254    -6.2707    -0.5660 C.ar    
  28 C28            5.1017    -5.5021    -1.6938 C.ar    
  29 C29            4.6849    -4.1934    -1.5638 C.ar    
  30 C30            0.4055     0.8065    -2.2898 C.1     
  31 N31            1.0500     0.8606    -3.2237 N.1     
  32 H32           -0.5180    -0.6141     2.0020 H       
  33 H33           -2.6099     0.5652     2.0555 H       
  34 H34           -4.2232     3.2505    -1.8152 H       
  35 H35           -4.3292     2.1653     1.8914 H       
  36 H36           -5.0982     3.3108     0.7668 H       
  37 H37            0.2249    -2.5258     0.2859 H       
  38 H38            1.6021    -2.5788    -0.8446 H       
  39 H39            1.7387    -2.2042     2.1831 H       
  40 H40            2.2666    -3.6351     1.2644 H       
  41 H41            2.9633    -0.0545     1.9646 H       
  42 H42            4.3751     0.0687     0.8867 H       
  43 H43            2.9501    -0.2122    -1.0894 H       
  44 H44            2.2909     1.1077    -0.0891 H       
  45 H45            5.4777    -1.9504     1.9618 H       
  46 H46            4.1112    -1.9367     3.1067 H       
  47 H47            5.3229    -4.1843     2.8572 H       
  48 H48            3.5611    -4.2280     2.6137 H       
  49 H49            5.3060    -6.3305     1.5679 H       
  50 H50            5.6529    -7.2949    -0.6667 H       
  51 H51            5.2528    -5.9262    -2.6755 H       
  52 H52            4.5105    -3.5940    -2.4452 H       
@<TRIPOS>BOND
   1    1    2 2
   2    1   30 1
   3    1    6 1
   4    2    3 1
   5    2   12 1
   6    3    4 2
   7    3   32 1
   8    4    5 1
   9    4   33 1
  10    5    6 1
  11    5    7 1
  12    6    9 2
  13    7    8 2
  14    7   10 1
  15    8    9 1
  16    8   34 1
  17   10   11 1
  18   10   35 1
  19   10   36 1
  20   11   13 1
  21   11   14 1
  22   11   15 1
  23   12   16 1
  24   12   20 1
  25   16   17 1
  26   16   37 1
  27   16   38 1
  28   17   18 1
  29   17   39 1
  30   17   40 1
  31   18   19 1
  32   18   21 1
  33   18   25 1
  34   19   20 1
  35   19   41 1
  36   19   42 1
  37   20   43 1
  38   20   44 1
  39   21   22 1
  40   21   45 1
  41   21   46 1
  42   22   23 1
  43   22   47 1
  44   22   48 1
  45   23   24 ar
  46   23   26 ar
  47   24   25 1
  48   24   29 ar
  49   26   27 ar
  50   26   49 1
  51   27   28 ar
  52   27   50 1
  53   28   29 ar
  54   28   51 1
  55   29   52 1
  56   30   31 3

#	End of record

