#	Name: ASD03090941
#	Creating user name:	WinNT
#	Creation time:	15. 06. 2019 20:29

#	Modifying user name:	WinNT
#	Modification time:	15. 06. 2019 20:29

#	Program:	/corina/corina34_cracker 3.40 0067  02.08.2006

@<TRIPOS>MOLECULE
ASD03090941
  57   62    0    0    0
SMALL
NO_CHARGES


@<TRIPOS>ATOM
   1 N1            -0.0055     1.4721    -0.0662 N.am    
   2 C2             0.0201     0.0070    -0.0775 C.3     
   3 C3             1.5097    -0.3696    -0.1325 C.3     
   4 C4             2.2369     0.9561    -0.1486 C.ar    
   5 C5             3.5867     1.2487    -0.1936 C.ar    
   6 C6             4.0122     2.5638    -0.1983 C.ar    
   7 C7             3.0833     3.5876    -0.1584 C.ar    
   8 C8             1.7359     3.3006    -0.1140 C.ar    
   9 C9             1.2981     1.9746    -0.1084 C.ar    
  10 C10           -1.1227     2.2250    -0.0267 C.2     
  11 O11           -2.2180     1.6944    -0.0962 O.2     
  12 N12           -1.0298     3.5526     0.0885 N.2     
  13 S13           -3.7250     3.7796    -0.3436 S.3     
  14 C14           -2.1255     4.3051     0.0181 C.2     
  15 N15           -2.2128     5.6446     0.2171 N.pl3   
  16 C16           -3.4466     6.2067     0.0927 C.2     
  17 C17           -4.4482     5.3919    -0.2114 C.2     
  18 O18            2.2415     8.6728     1.5009 O.3     
  19 C19            2.7713     9.5274     0.4817 C.3     
  20 C20            1.6037    10.2857    -0.1641 C.3     
  21 O21            0.7004     9.3257    -0.7229 O.3     
  22 C22            0.3738     8.2632     0.0626 C.ar    
  23 C23            1.1449     7.9351     1.1723 C.ar    
  24 C24           -0.7409     7.5025    -0.2531 C.ar    
  25 C25           -1.0849     6.4138     0.5363 C.ar    
  26 C26           -0.3121     6.0875     1.6421 C.ar    
  27 C27            0.7984     6.8462     1.9581 C.ar    
  28 F28            0.9423    11.0476     0.8051 F       
  29 F29            2.0868    11.1234    -1.1750 F       
  30 F30            3.6691    10.4380     1.0491 F       
  31 F31            3.4267     8.7579    -0.4855 F       
  32 C32           -5.8966     5.7602    -0.4048 C.3     
  33 C33           -0.6105    -0.5366     1.1787 C.ar    
  34 C34           -1.4024    -1.6682     1.1200 C.ar    
  35 C35           -1.9809    -2.1679     2.2714 C.ar    
  36 C36           -1.7671    -1.5346     3.4839 C.ar    
  37 C37           -0.9738    -0.4013     3.5415 C.ar    
  38 C38           -0.3921     0.0935     2.3896 C.ar    
  39 F39           -2.3324    -2.0219     4.6100 F       
  40 H40           -0.4989    -0.3735    -0.9572 H       
  41 H41            1.7890    -0.9457     0.7496 H       
  42 H42            1.7261    -0.9331    -1.0400 H       
  43 H43            4.3107     0.4480    -0.2247 H       
  44 H44            5.0674     2.7913    -0.2328 H       
  45 H45            3.4148     4.6155    -0.1618 H       
  46 H46            1.0156     4.1048    -0.0830 H       
  47 H47           -3.6026     7.2658     0.2352 H       
  48 H48           -1.3420     7.7570    -1.1135 H       
  49 H49           -0.5790     5.2398     2.2559 H       
  50 H50            1.3983     6.5906     2.8190 H       
  51 H51           -6.4698     4.8654    -0.6475 H       
  52 H52           -6.2847     6.2025     0.5127 H       
  53 H53           -5.9831     6.4791    -1.2196 H       
  54 H54           -1.5694    -2.1618     0.1740 H       
  55 H55           -2.5998    -3.0518     2.2252 H       
  56 H56           -0.8063     0.0935     4.4867 H       
  57 H57            0.2301     0.9751     2.4349 H       
@<TRIPOS>BOND
   1    1    2 1
   2    1    9 1
   3    1   10 am
   4    2    3 1
   5    2   33 1
   6    2   40 1
   7    3    4 1
   8    3   41 1
   9    3   42 1
  10    4    5 ar
  11    4    9 ar
  12    5    6 ar
  13    5   43 1
  14    6    7 ar
  15    6   44 1
  16    7    8 ar
  17    7   45 1
  18    8    9 ar
  19    8   46 1
  20   10   11 2
  21   10   12 1
  22   12   14 2
  23   13   14 1
  24   13   17 1
  25   14   15 1
  26   15   16 1
  27   15   25 1
  28   16   17 2
  29   16   47 1
  30   17   32 1
  31   18   19 1
  32   18   23 1
  33   19   20 1
  34   19   30 1
  35   19   31 1
  36   20   21 1
  37   20   28 1
  38   20   29 1
  39   21   22 1
  40   22   23 ar
  41   22   24 ar
  42   23   27 ar
  43   24   25 ar
  44   24   48 1
  45   25   26 ar
  46   26   27 ar
  47   26   49 1
  48   27   50 1
  49   32   51 1
  50   32   52 1
  51   32   53 1
  52   33   34 ar
  53   33   38 ar
  54   34   35 ar
  55   34   54 1
  56   35   36 ar
  57   35   55 1
  58   36   37 ar
  59   36   39 1
  60   37   38 ar
  61   37   56 1
  62   38   57 1

#	End of record

