#	Name: ASD07930623
#	Creating user name:	WinNT
#	Creation time:	15. 06. 2019 21:12

#	Modifying user name:	WinNT
#	Modification time:	15. 06. 2019 21:12

#	Program:	/corina/corina34_cracker 3.40 0067  02.08.2006

@<TRIPOS>MOLECULE
ASD07930623
  45   47    0    0    0
SMALL
NO_CHARGES


@<TRIPOS>ATOM
   1 C1             1.3695     0.7526    -1.5472 C.3     
   2 N2             2.3133    -2.0773    -1.4376 N.2     
   3 N3             0.0354    -2.5823    -1.3054 N.pl3   
   4 C4            -0.8997    -2.7429    -0.1870 C.3     
   5 C5            -1.5452    -1.3872     0.1316 C.3     
   6 S6            -0.2179    -0.1886     0.4724 S.o2    
   7 N7             0.8029    -0.3916    -0.8289 N.am    
   8 C8             1.0894    -1.6980    -1.1989 C.2     
   9 C9            -0.1434    -3.2502     1.0425 C.3     
  10 C10           -1.9705    -3.7338    -0.5646 C.ar    
  11 C11           -1.6886    -4.7476    -1.4614 C.ar    
  12 C12           -2.6781    -5.6613    -1.8088 C.ar    
  13 C13           -3.9455    -5.5525    -1.2541 C.ar    
  14 C14           -4.2222    -4.5374    -0.3583 C.ar    
  15 C15           -3.2350    -3.6319    -0.0088 C.ar    
  16 O16           -0.6967     1.1434     0.3468 O.2     
  17 O17            0.5511    -0.5938     1.5966 O.2     
  18 N18           -2.3960    -6.6892    -2.7173 N.am    
  19 C19           -3.3926    -7.2516    -3.4293 C.2     
  20 O20           -4.5197    -6.8023    -3.3571 O.2     
  21 C21           -3.1147    -8.4162    -4.2991 C.ar    
  22 C22           -4.1503    -8.9937    -5.0334 C.ar    
  23 F23           -3.5087    -2.6406     0.8673 F       
  24 C24           -3.8739   -10.0849    -5.8443 C.ar    
  25 C25           -1.5905    -9.9316    -5.1382 C.ar    
  26 N26           -1.8801    -8.8993    -4.3781 N.ar    
  27 C27           -2.5720   -10.5599    -5.8922 C.ar    
  28 Cl28          -2.1724   -11.9225    -6.8907 Cl      
  29 Cl29          -5.7621    -8.3566    -4.9337 Cl      
  30 F30           -0.4538    -4.8504    -1.9998 F       
  31 H31            2.3184     1.0343    -1.0909 H       
  32 H32            1.5341     0.4816    -2.5901 H       
  33 H33            0.6775     1.5932    -1.4951 H       
  34 H34            3.0422    -1.4422    -1.3576 H       
  35 H35           -0.0844    -3.0998    -2.1170 H       
  36 H36           -2.1337    -1.0508    -0.7220 H       
  37 H37           -2.1877    -1.4827     1.0069 H       
  38 H38            0.6913    -2.5827     1.2566 H       
  39 H39           -0.8174    -3.2753     1.8988 H       
  40 H40            0.2345    -4.2539     0.8480 H       
  41 H41           -4.7154    -6.2606    -1.5227 H       
  42 H42           -5.2086    -4.4530     0.0733 H       
  43 H43           -1.4834    -6.9964    -2.8340 H       
  44 H44           -4.6548   -10.5538    -6.4246 H       
  45 H45           -0.5745   -10.2960    -5.1770 H       
@<TRIPOS>BOND
   1    1    7 1
   2    1   31 1
   3    1   32 1
   4    1   33 1
   5    2    8 2
   6    2   34 1
   7    3    4 1
   8    3    8 1
   9    3   35 1
  10    4    5 1
  11    4    9 1
  12    4   10 1
  13    5    6 1
  14    5   36 1
  15    5   37 1
  16    6    7 am
  17    6   16 2
  18    6   17 2
  19    7    8 1
  20    9   38 1
  21    9   39 1
  22    9   40 1
  23   10   11 ar
  24   10   15 ar
  25   11   12 ar
  26   11   30 1
  27   12   13 ar
  28   12   18 1
  29   13   14 ar
  30   13   41 1
  31   14   15 ar
  32   14   42 1
  33   15   23 1
  34   18   19 am
  35   18   43 1
  36   19   20 2
  37   19   21 1
  38   21   22 ar
  39   21   26 ar
  40   22   24 ar
  41   22   29 1
  42   24   27 ar
  43   24   44 1
  44   25   26 ar
  45   25   27 ar
  46   25   45 1
  47   27   28 1

#	End of record

