#	Name: ASD07730010
#	Creating user name:	WinNT
#	Creation time:	15. 06. 2019 21:11

#	Modifying user name:	WinNT
#	Modification time:	15. 06. 2019 21:11

#	Program:	/corina/corina34_cracker 3.40 0067  02.08.2006

@<TRIPOS>MOLECULE
ASD07730010
  38   40    0    0    0
SMALL
NO_CHARGES


@<TRIPOS>ATOM
   1 C1            -0.0185     1.3821     0.0511 C.ar    
   2 C2             0.0015    -0.0073     0.0622 C.ar    
   3 C3             1.1442     2.0980     0.0143 C.ar    
   4 C4             2.3677     1.4324    -0.0126 C.ar    
   5 C5             2.3892     0.0249    -0.0014 C.ar    
   6 C6             1.1857    -0.6857     0.0365 C.ar    
   7 N7             3.6730     1.8486    -0.0506 N.pl3   
   8 N8             4.5122     0.7299    -0.0636 N.2     
   9 C9             3.7995    -0.3646    -0.0356 C.2     
  10 N10            4.2952    -1.6736    -0.0374 N.am    
  11 C11            4.1185     3.2440    -0.0748 C.3     
  12 C12            5.6250    -1.8905    -0.0709 C.2     
  13 N13            6.1024    -3.1509    -0.0726 N.am    
  14 O14            6.3941    -0.9490    -0.0995 O.2     
  15 C15            7.4801    -3.3783    -0.1929 C.ar    
  16 C16            8.3832    -2.4050     0.2087 C.ar    
  17 C17            7.9462    -4.5844    -0.7107 C.ar    
  18 C18            9.3092    -4.8039    -0.8268 C.ar    
  19 C19           10.2033    -3.8274    -0.4289 C.ar    
  20 C20            9.7413    -2.6317     0.0896 C.ar    
  21 O21            7.0656    -5.5444    -1.1008 O.3     
  22 C22            7.6154    -6.7559    -1.6223 C.3     
  23 H23           -0.9649     1.9022     0.0673 H       
  24 H24           -0.9286    -0.5554     0.0918 H       
  25 H25            1.1151     3.1776     0.0057 H       
  26 H26            1.1930    -1.7656     0.0456 H       
  27 H27            3.6817    -2.4246    -0.0145 H       
  28 H28            4.2561     3.5993     0.9464 H       
  29 H29            5.0630     3.3146    -0.6143 H       
  30 H30            3.3680     3.8565    -0.5746 H       
  31 H31            5.4924    -3.9006     0.0093 H       
  32 H32            8.0251    -1.4702     0.6141 H       
  33 H33            9.6734    -5.7382    -1.2279 H       
  34 H34           11.2655    -4.0005    -0.5195 H       
  35 H35           10.4435    -1.8717     0.3991 H       
  36 H36            8.2151    -6.5324    -2.5047 H       
  37 H37            8.2438    -7.2251    -0.8653 H       
  38 H38            6.8069    -7.4342    -1.8947 H       
@<TRIPOS>BOND
   1    1    2 ar
   2    1    3 ar
   3    1   23 1
   4    2    6 ar
   5    2   24 1
   6    3    4 ar
   7    3   25 1
   8    4    5 ar
   9    4    7 1
  10    5    6 ar
  11    5    9 1
  12    6   26 1
  13    7    8 1
  14    7   11 1
  15    8    9 2
  16    9   10 1
  17   10   12 am
  18   10   27 1
  19   11   28 1
  20   11   29 1
  21   11   30 1
  22   12   13 am
  23   12   14 2
  24   13   15 1
  25   13   31 1
  26   15   16 ar
  27   15   17 ar
  28   16   20 ar
  29   16   32 1
  30   17   18 ar
  31   17   21 1
  32   18   19 ar
  33   18   33 1
  34   19   20 ar
  35   19   34 1
  36   20   35 1
  37   21   22 1
  38   22   36 1
  39   22   37 1
  40   22   38 1

#	End of record

