#	Name: ASD03940002
#	Creating user name:	WinNT
#	Creation time:	15. 06. 2019 20:47

#	Modifying user name:	WinNT
#	Modification time:	15. 06. 2019 20:47

#	Program:	/corina/corina34_cracker 3.40 0067  02.08.2006

@<TRIPOS>MOLECULE
ASD03940002
  47   49    0    0    0
SMALL
NO_CHARGES


@<TRIPOS>ATOM
   1 C1            -0.0170     1.4007     0.0097 C.ar    
   2 C2             0.0021    -0.0041     0.0020 C.ar    
   3 N3            -1.1507    -0.6658     0.0095 N.ar    
   4 C4            -2.2962    -0.0178     0.0239 C.ar    
   5 N5            -2.3644     1.3012     0.0312 N.ar    
   6 C6            -1.2648     2.0472     0.0302 C.ar    
   7 N7            -1.3463     3.4286     0.0384 N.pl3   
   8 N8             1.2719     1.8175    -0.0003 N.2     
   9 C9             2.0616     0.7832    -0.0134 C.2     
  10 N10            1.3258    -0.3643    -0.0126 N.pl3   
  11 C11            1.8520    -1.7315    -0.0242 C.3     
  12 O12            3.1960    -1.7575     0.5039 O.3     
  13 C13            3.7781    -2.9807     0.0031 C.3     
  14 C14            3.2845    -3.0836    -1.4571 C.3     
  15 C15            1.9883    -2.2430    -1.4755 C.3     
  16 O16            0.8680    -3.0577    -1.8265 O.3     
  17 O17            3.0044    -4.4433    -1.7963 O.3     
  18 C18            5.3054    -2.8998     0.0446 C.3     
  19 O19            5.7429    -2.8483     1.4040 O.3     
  20 P20            7.2948    -2.7581     1.8229 P.3     
  21 O21            7.4106    -2.5860     3.4195 O.3     
  22 O22            8.0515    -4.1059     1.3721 O.3     
  23 O23            7.9194    -1.5946     1.1547 O.2     
  24 P24            8.5644    -2.0492     4.4057 P.3     
  25 O25            8.2958    -2.5986     5.8951 O.3     
  26 O26            9.8814    -2.5306     3.9323 O.2     
  27 O27            8.5541    -0.4393     4.4176 O.3     
  28 P28            9.1901    -2.6930     7.2305 P.3     
  29 S29            9.7260    -0.9828     7.7414 S.2     
  30 O30            8.3220    -3.3586     8.4118 O.3     
  31 O31           10.4895    -3.5992     6.9434 O.3     
  32 H32           -3.2147    -0.5858     0.0296 H       
  33 H33           -2.2135     3.8632     0.0449 H       
  34 H34           -0.5364     3.9623     0.0376 H       
  35 H35            3.1407     0.8274    -0.0238 H       
  36 H36            1.2046    -2.3914     0.5533 H       
  37 H37            3.4265    -3.8336     0.5835 H       
  38 H38            4.0224    -2.6628    -2.1403 H       
  39 H39            2.0853    -1.4066    -2.1677 H       
  40 H40            0.9303    -3.4542    -2.7063 H       
  41 H41            2.6907    -4.5659    -2.7027 H       
  42 H42            5.7291    -3.7791    -0.4404 H       
  43 H43            5.6360    -2.0020    -0.4778 H       
  44 H44            7.6941    -4.9103     1.7725 H       
  45 H45            7.7198    -0.0535     4.7179 H       
  46 H46            8.7988    -3.4470     9.2484 H       
  47 H47           10.2855    -4.5046     6.6721 H       
@<TRIPOS>BOND
   1    1    2 ar
   2    1    8 1
   3    1    6 ar
   4    2    3 ar
   5    2   10 1
   6    3    4 ar
   7    4    5 ar
   8    4   32 1
   9    5    6 ar
  10    6    7 1
  11    7   33 1
  12    7   34 1
  13    8    9 2
  14    9   10 1
  15    9   35 1
  16   10   11 1
  17   11   12 1
  18   11   15 1
  19   11   36 1
  20   12   13 1
  21   13   14 1
  22   13   18 1
  23   13   37 1
  24   14   15 1
  25   14   17 1
  26   14   38 1
  27   15   16 1
  28   15   39 1
  29   16   40 1
  30   17   41 1
  31   18   19 1
  32   18   42 1
  33   18   43 1
  34   19   20 1
  35   20   21 1
  36   20   22 1
  37   20   23 2
  38   21   24 1
  39   22   44 1
  40   24   25 1
  41   24   26 2
  42   24   27 1
  43   25   28 1
  44   27   45 1
  45   28   29 2
  46   28   30 1
  47   28   31 1
  48   30   46 1
  49   31   47 1

#	End of record

