#	Name: ASD01150778
#	Creating user name:	WinNT
#	Creation time:	15. 06. 2019 19:05

#	Modifying user name:	WinNT
#	Modification time:	15. 06. 2019 19:05

#	Program:	/corina/corina34_cracker 3.40 0067  02.08.2006

@<TRIPOS>MOLECULE
ASD01150778
  45   48    0    0    0
SMALL
NO_CHARGES


@<TRIPOS>ATOM
   1 C1            -0.0259     1.2547     0.4483 C.2     
   2 O2             0.6303     0.8469    -0.4870 O.2     
   3 C3             0.4077     0.9556     1.8603 C.3     
   4 C4             1.2802    -0.2810     2.0844 C.3     
   5 C5             1.8925     1.1169     2.1924 C.3     
   6 N6            -2.2187     4.1611    -0.2124 N.ar    
   7 C7            -1.1544     3.4344     0.0067 C.ar    
   8 C8            -1.2381     2.0439     0.2050 C.ar    
   9 C9            -2.4981     1.4197     0.1666 C.ar    
  10 C10           -3.6304     2.2365    -0.0730 C.ar    
  11 C11           -4.9205     1.6916    -0.1253 C.ar    
  12 C12           -5.9886     2.5078    -0.3571 C.ar    
  13 C13           -5.8117     3.8770    -0.5424 C.ar    
  14 C14           -4.5708     4.4372    -0.4974 C.ar    
  15 C15           -3.4472     3.6285    -0.2611 C.ar    
  16 C16            0.1957     4.1025     0.0480 C.3     
  17 C17           -2.6358    -0.0376     0.3687 C.ar    
  18 C18           -3.3187    -0.5298     1.4831 C.ar    
  19 C19           -3.4434    -1.8913     1.6655 C.ar    
  20 C20           -2.8937    -2.7689     0.7475 C.ar    
  21 C21           -2.2158    -2.2880    -0.3590 C.ar    
  22 C22           -2.0886    -0.9289    -0.5569 C.ar    
  23 S23           -3.0573    -4.5066     0.9888 S.o2    
  24 O24           -1.9404    -5.0616     0.3078 O.2     
  25 O25           -3.2051    -4.6528     2.3945 O.2     
  26 C26           -4.6003    -4.9384     0.1382 C.3     
  27 Br27          -7.7291     1.7720    -0.4283 Br      
  28 H28           -0.3128     1.2108     2.6374 H       
  29 H29            1.1340    -0.8393     3.0091 H       
  30 H30            1.5406    -0.8784     1.2106 H       
  31 H31            2.5556     1.4393     1.3897 H       
  32 H32            2.1490     1.4784     3.1882 H       
  33 H33           -5.0682     0.6312     0.0167 H       
  34 H34           -6.6718     4.5042    -0.7249 H       
  35 H35           -4.4513     5.5006    -0.6436 H       
  36 H36            0.4567     4.3308     1.0813 H       
  37 H37            0.9449     3.4343    -0.3768 H       
  38 H38            0.1622     5.0255    -0.5308 H       
  39 H39           -3.7478     0.1540     2.2005 H       
  40 H40           -3.9708    -2.2734     2.5270 H       
  41 H41           -1.7890    -2.9785    -1.0714 H       
  42 H42           -1.5634    -0.5549    -1.4233 H       
  43 H43           -4.5177    -4.6802    -0.9175 H       
  44 H44           -4.7826    -6.0084     0.2374 H       
  45 H45           -5.4276    -4.3860     0.5838 H       
@<TRIPOS>BOND
   1    1    2 2
   2    1    3 1
   3    1    8 1
   4    3    4 1
   5    3    5 1
   6    3   28 1
   7    4    5 1
   8    4   29 1
   9    4   30 1
  10    5   31 1
  11    5   32 1
  12    6    7 ar
  13    6   15 ar
  14    7    8 ar
  15    7   16 1
  16    8    9 ar
  17    9   10 ar
  18    9   17 1
  19   10   11 ar
  20   10   15 ar
  21   11   12 ar
  22   11   33 1
  23   12   13 ar
  24   12   27 1
  25   13   14 ar
  26   13   34 1
  27   14   15 ar
  28   14   35 1
  29   16   36 1
  30   16   37 1
  31   16   38 1
  32   17   18 ar
  33   17   22 ar
  34   18   19 ar
  35   18   39 1
  36   19   20 ar
  37   19   40 1
  38   20   21 ar
  39   20   23 1
  40   21   22 ar
  41   21   41 1
  42   22   42 1
  43   23   24 2
  44   23   25 2
  45   23   26 1
  46   26   43 1
  47   26   44 1
  48   26   45 1

#	End of record

