#	Name: ASD03092072
#	Creating user name:	WinNT
#	Creation time:	15. 06. 2019 20:31

#	Modifying user name:	WinNT
#	Modification time:	15. 06. 2019 20:31

#	Program:	/corina/corina34_cracker 3.40 0067  02.08.2006

@<TRIPOS>MOLECULE
ASD03092072
  40   42    0    0    0
SMALL
NO_CHARGES


@<TRIPOS>ATOM
   1 N1             0.3276     1.0004    -0.2117 N.pl3   
   2 C2             0.0494    -0.3063     0.0603 C.2     
   3 C3            -1.3094    -0.4453     0.0534 C.2     
   4 C4            -1.8665     0.8080    -0.2297 C.2     
   5 N5            -0.8896     1.6720    -0.3824 N.2     
   6 N6            -3.2339     1.0928    -0.3275 N.pl3   
   7 C7            -3.6626     2.4123    -0.5014 C.ar    
   8 C8            -4.8505     2.6746    -1.1714 C.ar    
   9 C9            -5.2736     3.9805    -1.3423 C.ar    
  10 C10           -4.5125     5.0271    -0.8454 C.ar    
  11 C11           -2.9037     3.4615     0.0005 C.ar    
  12 C12            1.0377    -1.3770     0.3152 C.ar    
  13 C13            1.6624     1.5973    -0.3030 C.3     
  14 C14            0.7060    -2.7226     0.1216 C.ar    
  15 C15            1.6584    -3.6887     0.3714 C.ar    
  16 N16            2.8662    -3.3580     0.7869 N.ar    
  17 C17            3.2200    -2.1017     0.9821 C.ar    
  18 C18            2.3323    -1.0720     0.7512 C.ar    
  19 C19            4.6151    -1.7878     1.4577 C.3     
  20 O20            1.6769     2.5746    -1.3454 O.3     
  21 C21           -3.3266     4.7667    -0.1765 C.ar    
  22 F22           -6.4289     4.2361    -1.9944 F       
  23 C23            2.0142     2.2657     1.0276 C.3     
  24 F24           -4.9266     6.3020    -1.0134 F       
  25 F25           -2.5858     5.7879     0.3068 F       
  26 H26           -1.8564    -1.3589     0.2335 H       
  27 H27           -3.8839     0.3747    -0.2745 H       
  28 H28           -5.4435     1.8594    -1.5590 H       
  29 H29           -1.9819     3.2588     0.5256 H       
  30 H30            2.3938     0.8198    -0.5236 H       
  31 H31           -0.2808    -3.0006    -0.2180 H       
  32 H32            1.4119    -4.7300     0.2253 H       
  33 H33            2.6287    -0.0462     0.9131 H       
  34 H34            5.2699    -1.6503     0.5973 H       
  35 H35            4.5993    -0.8742     2.0520 H       
  36 H36            4.9850    -2.6118     2.0678 H       
  37 H37            1.0490     3.2983    -1.2149 H       
  38 H38            2.0031     1.5202     1.8228 H       
  39 H39            3.0073     2.7098     0.9597 H       
  40 H40            1.2828     3.0432     1.2482 H       
@<TRIPOS>BOND
   1    1    2 1
   2    1   13 1
   3    1    5 1
   4    2    3 2
   5    2   12 1
   6    3    4 1
   7    3   26 1
   8    4    5 2
   9    4    6 1
  10    6    7 1
  11    6   27 1
  12    7    8 ar
  13    7   11 ar
  14    8    9 ar
  15    8   28 1
  16    9   10 ar
  17    9   22 1
  18   10   21 ar
  19   10   24 1
  20   11   21 ar
  21   11   29 1
  22   12   14 ar
  23   12   18 ar
  24   13   20 1
  25   13   23 1
  26   13   30 1
  27   14   15 ar
  28   14   31 1
  29   15   16 ar
  30   15   32 1
  31   16   17 ar
  32   17   18 ar
  33   17   19 1
  34   18   33 1
  35   19   34 1
  36   19   35 1
  37   19   36 1
  38   20   37 1
  39   21   25 1
  40   23   38 1
  41   23   39 1
  42   23   40 1

#	End of record

