#	Name: ASD07932062
#	Creating user name:	WinNT
#	Creation time:	15. 06. 2019 21:14

#	Modifying user name:	WinNT
#	Modification time:	15. 06. 2019 21:14

#	Program:	/corina/corina34_cracker 3.40 0067  02.08.2006

@<TRIPOS>MOLECULE
ASD07932062
  54   56    0    0    0
SMALL
NO_CHARGES


@<TRIPOS>ATOM
   1 N1            -0.0142     1.4462     0.0288 N.pl3   
   2 C2             0.0009    -0.0204     0.0211 C.3     
   3 C3             0.7670    -0.5250     1.2518 C.3     
   4 S4             2.4325     0.2099     1.2287 S.o2    
   5 N5             2.1159     1.8289     0.9938 N.am    
   6 C6             1.1750     2.1461     0.0244 C.2     
   7 C7             2.7974     2.8662     1.7722 C.3     
   8 N8             1.4069     3.0740    -0.8610 N.2     
   9 O9             3.0300     0.1456     2.5164 O.2     
  10 O10            3.1432    -0.1880     0.0643 O.2     
  11 C11           -1.4136    -0.5385     0.0616 C.ar    
  12 C12            0.6919    -0.5176    -1.2502 C.3     
  13 C13           -2.4675     0.3430     0.1997 C.ar    
  14 C14           -3.7711    -0.1350     0.2365 C.ar    
  15 C15           -4.0116    -1.4987     0.1343 C.ar    
  16 C16           -2.9544    -2.3770    -0.0036 C.ar    
  17 C17           -1.6560    -1.8979    -0.0454 C.ar    
  18 N18           -4.8407     0.7565     0.3768 N.am    
  19 C19           -6.0108     0.5082    -0.2440 C.2     
  20 O20           -6.1078    -0.4366    -1.0028 O.2     
  21 C21           -7.1767     1.3850    -0.0022 C.ar    
  22 C22           -8.3874     1.1286    -0.6441 C.ar    
  23 F23           -0.6235    -2.7586    -0.1804 F       
  24 N24           -9.4280     1.9123    -0.4269 N.ar    
  25 C25           -9.3212     2.9422     0.4012 C.ar    
  26 C26           -8.1087     3.1997     1.0440 C.ar    
  27 N27           -7.0726     2.4172     0.8334 N.ar    
  28 O28          -10.3892     3.7457     0.6235 O.3     
  29 C29          -11.5980     3.4241    -0.0676 C.3     
  30 C30          -12.6838     4.4348     0.3069 C.3     
  31 C31          -13.9780     4.0906    -0.4330 C.3     
  32 H32           -0.8587     1.9233     0.0329 H       
  33 H33            0.2445    -0.2227     2.1594 H       
  34 H34            0.8444    -1.6117     1.2164 H       
  35 H35            3.7101     3.1661     1.2573 H       
  36 H36            2.1408     3.7295     1.8804 H       
  37 H37            3.0483     2.4747     2.7580 H       
  38 H38            2.2487     3.5559    -0.8494 H       
  39 H39            1.7155    -0.1439    -1.2772 H       
  40 H40            0.7028    -1.6075    -1.2552 H       
  41 H41            0.1497    -0.1556    -2.1237 H       
  42 H42           -2.2783     1.4033     0.2794 H       
  43 H43           -5.0244    -1.8725     0.1631 H       
  44 H44           -3.1410    -3.4378    -0.0828 H       
  45 H45           -4.7398     1.5532     0.9209 H       
  46 H46           -8.4742     0.2898    -1.3189 H       
  47 H47           -8.0228     4.0394     1.7178 H       
  48 H48          -11.4226     3.4609    -1.1427 H       
  49 H49          -11.9217     2.4220     0.2137 H       
  50 H50          -12.8593     4.3981     1.3821 H       
  51 H51          -12.3601     5.4369     0.0256 H       
  52 H52          -14.7516     4.8106    -0.1663 H       
  53 H53          -13.8026     4.1273    -1.5082 H       
  54 H54          -14.3018     3.0885    -0.1518 H       
@<TRIPOS>BOND
   1    1    2 1
   2    1    6 1
   3    1   32 1
   4    2    3 1
   5    2   11 1
   6    2   12 1
   7    3    4 1
   8    3   33 1
   9    3   34 1
  10    4    5 am
  11    4    9 2
  12    4   10 2
  13    5    6 1
  14    5    7 1
  15    6    8 2
  16    7   35 1
  17    7   36 1
  18    7   37 1
  19    8   38 1
  20   11   13 ar
  21   11   17 ar
  22   12   39 1
  23   12   40 1
  24   12   41 1
  25   13   14 ar
  26   13   42 1
  27   14   15 ar
  28   14   18 1
  29   15   16 ar
  30   15   43 1
  31   16   17 ar
  32   16   44 1
  33   17   23 1
  34   18   19 am
  35   18   45 1
  36   19   20 2
  37   19   21 1
  38   21   22 ar
  39   21   27 ar
  40   22   24 ar
  41   22   46 1
  42   24   25 ar
  43   25   26 ar
  44   25   28 1
  45   26   27 ar
  46   26   47 1
  47   28   29 1
  48   29   30 1
  49   29   48 1
  50   29   49 1
  51   30   31 1
  52   30   50 1
  53   30   51 1
  54   31   52 1
  55   31   53 1
  56   31   54 1

#	End of record

