#	Name: ASD05250080
#	Creating user name:	WinNT
#	Creation time:	15. 06. 2019 20:58

#	Modifying user name:	WinNT
#	Modification time:	15. 06. 2019 20:58

#	Program:	/corina/corina34_cracker 3.40 0067  02.08.2006

@<TRIPOS>MOLECULE
ASD05250080
  34   35    0    0    0
SMALL
NO_CHARGES


@<TRIPOS>ATOM
   1 C1            -0.0167     1.3823     0.0096 C.ar    
   2 C2             0.0021    -0.0041     0.0020 C.ar    
   3 C3             1.2163    -0.6871    -0.0133 C.ar    
   4 C4             2.4056     0.0176    -0.0209 C.ar    
   5 C5             2.3863     1.4135    -0.0132 C.ar    
   6 C6             1.1670     2.0914     0.0021 C.ar    
   7 O7             1.2315    -2.0469    -0.0203 O.3     
   8 C8             3.6549     2.1715    -0.0208 C.2     
   9 C9             3.6350     3.4973    -0.0135 C.2     
  10 C10            4.9287     4.2703    -0.0213 C.3     
  11 C11            4.9850     5.1577    -1.2663 C.3     
  12 O12           -1.1668    -0.6984     0.0099 O.3     
  13 C13            5.0080     5.1443     1.2320 C.3     
  14 C14            6.3214     5.9291     1.2241 C.3     
  15 C15            6.3778     6.8165    -0.0209 C.3     
  16 C16            6.2984     5.9425    -1.2742 C.3     
  17 H17           -0.9599     1.9083     0.0170 H       
  18 H18            3.3475    -0.5106    -0.0324 H       
  19 H19            1.1496     3.1713     0.0081 H       
  20 H20            1.2273    -2.4358    -0.9057 H       
  21 H21            4.5981     1.6456    -0.0323 H       
  22 H22            2.6918     4.0232    -0.0020 H       
  23 H23            5.7676     3.5745    -0.0327 H       
  24 H24            4.9285     4.5351    -2.1592 H       
  25 H25            4.1461     5.8535    -1.2549 H       
  26 H26           -1.5137    -0.8945    -0.8711 H       
  27 H27            4.1691     5.8401     1.2435 H       
  28 H28            4.9679     4.5121     2.1190 H       
  29 H29            6.3780     6.5517     2.1170 H       
  30 H30            7.1604     5.2333     1.2127 H       
  31 H31            5.5388     7.5123    -0.0095 H       
  32 H32            7.3135     7.3756    -0.0265 H       
  33 H33            7.1374     5.2467    -1.2857 H       
  34 H34            6.3386     6.5747    -2.1612 H       
@<TRIPOS>BOND
   1    1    2 ar
   2    1    6 ar
   3    1   17 1
   4    2    3 ar
   5    2   12 1
   6    3    4 ar
   7    3    7 1
   8    4    5 ar
   9    4   18 1
  10    5    6 ar
  11    5    8 1
  12    6   19 1
  13    7   20 1
  14    8    9 2
  15    8   21 1
  16    9   10 1
  17    9   22 1
  18   10   13 1
  19   10   11 1
  20   10   23 1
  21   11   16 1
  22   11   24 1
  23   11   25 1
  24   12   26 1
  25   13   14 1
  26   13   27 1
  27   13   28 1
  28   14   15 1
  29   14   29 1
  30   14   30 1
  31   15   16 1
  32   15   31 1
  33   15   32 1
  34   16   33 1
  35   16   34 1

#	End of record

