#	Name: ASD01140210
#	Creating user name:	WinNT
#	Creation time:	15. 06. 2019 19:00

#	Modifying user name:	WinNT
#	Modification time:	15. 06. 2019 19:00

#	Program:	/corina/corina34_cracker 3.40 0067  02.08.2006

@<TRIPOS>MOLECULE
ASD01140210
  46   49    0    0    0
SMALL
NO_CHARGES


@<TRIPOS>ATOM
   1 C1            -0.0186     1.4003     0.1420 C.2     
   2 C2             0.0002    -0.0039     0.1543 C.2     
   3 C3            -1.1556    -0.7003     0.1213 C.2     
   4 N4            -2.3565    -0.0534     0.0751 N.pl3   
   5 C5            -2.4091     1.3160     0.0620 C.2     
   6 C6            -1.2109     2.0589     0.1017 C.2     
   7 C7            -3.6554    -0.5048     0.0348 C.2     
   8 C8            -4.4571     0.6004    -0.0016 C.2     
   9 N9            -3.6840     1.6831     0.0157 N.2     
  10 C10           -4.0982    -1.9146     0.0314 C.ar    
  11 C11            1.2734     2.1752     0.1795 C.3     
  12 O12            0.9898     3.5756     0.1582 O.3     
  13 C13            2.0387     1.8292     1.4583 C.3     
  14 C14            2.1236     1.8084    -1.0386 C.3     
  15 C15           -3.2595    -2.9110     0.5278 C.ar    
  16 C16           -3.6834    -4.2368     0.5214 C.ar    
  17 C17           -4.9458    -4.5611     0.0179 C.ar    
  18 C18           -5.7734    -3.5672    -0.4740 C.ar    
  19 C19           -5.3607    -2.2505    -0.4643 C.ar    
  20 C20           -2.7977    -5.3020     1.0468 C.ar    
  21 C21           -2.4543    -5.3244     2.3959 C.ar    
  22 C22           -2.3039    -6.2995     0.1865 C.ar    
  23 C23           -1.4706    -7.2968     0.6945 C.ar    
  24 C24           -1.1362    -7.2992     2.0349 C.ar    
  25 C25           -1.6289    -6.3173     2.8823 C.ar    
  26 C26           -2.6546    -6.2917    -1.2019 C.1     
  27 N27           -2.9328    -6.2855    -2.3033 N.1     
  28 F28           -0.3296    -8.2662     2.5244 F       
  29 F29           -5.3590    -5.8473     0.0108 F       
  30 F30           -1.2446     3.4094     0.0899 F       
  31 H31            0.9435    -0.5287     0.1900 H       
  32 H32           -1.1298    -1.7800     0.1311 H       
  33 H33           -5.5365     0.5962    -0.0382 H       
  34 H34            1.7770     4.1367     0.1803 H       
  35 H35            2.2551     0.7610     1.4746 H       
  36 H36            2.9732     2.3896     1.4854 H       
  37 H37            1.4331     2.0904     2.3261 H       
  38 H38            1.5784     2.0549    -1.9497 H       
  39 H39            3.0581     2.3689    -1.0115 H       
  40 H40            2.3399     0.7402    -1.0224 H       
  41 H41           -2.2845    -2.6554     0.9157 H       
  42 H42           -6.7481    -3.8224    -0.8629 H       
  43 H43           -6.0111    -1.4791    -0.8495 H       
  44 H44           -2.8340    -4.5638     3.0620 H       
  45 H45           -1.0876    -8.0663     0.0406 H       
  46 H46           -1.3612    -6.3278     3.9286 H       
@<TRIPOS>BOND
   1    1    2 1
   2    1   11 1
   3    1    6 2
   4    2    3 2
   5    2   31 1
   6    3    4 1
   7    3   32 1
   8    4    5 1
   9    4    7 1
  10    5    6 1
  11    5    9 2
  12    6   30 1
  13    7    8 2
  14    7   10 1
  15    8    9 1
  16    8   33 1
  17   10   15 ar
  18   10   19 ar
  19   11   12 1
  20   11   13 1
  21   11   14 1
  22   12   34 1
  23   13   35 1
  24   13   36 1
  25   13   37 1
  26   14   38 1
  27   14   39 1
  28   14   40 1
  29   15   16 ar
  30   15   41 1
  31   16   17 ar
  32   16   20 1
  33   17   18 ar
  34   17   29 1
  35   18   19 ar
  36   18   42 1
  37   19   43 1
  38   20   21 ar
  39   20   22 ar
  40   21   25 ar
  41   21   44 1
  42   22   23 ar
  43   22   26 1
  44   23   24 ar
  45   23   45 1
  46   24   25 ar
  47   24   28 1
  48   25   46 1
  49   26   27 3

#	End of record

