#	Name: ASD00170162
#	Creating user name:	WinNT
#	Creation time:	15. 06. 2019 18:31

#	Modifying user name:	WinNT
#	Modification time:	15. 06. 2019 18:31

#	Program:	/corina/corina34_cracker 3.40 0067  02.08.2006

@<TRIPOS>MOLECULE
ASD00170162
  33   34    0    0    0
SMALL
NO_CHARGES


@<TRIPOS>ATOM
   1 C1            -0.0470     1.3657    -0.0373 C.2     
   2 C2             0.0165     0.0340    -0.0338 C.2     
   3 C3            -1.2103    -0.6132     0.0271 C.2     
   4 C4            -2.2759     0.2669     0.0729 C.2     
   5 S5            -1.6599     1.9131     0.0423 S.3     
   6 C6            -3.6925    -0.1122     0.1414 C.2     
   7 O7            -4.6378     0.8369     0.2974 O.3     
   8 C8            -1.3606    -2.0804     0.0405 C.2     
   9 C9            -1.3153    -2.8161     1.3213 C.ar    
  10 C10            1.1551     2.2725    -0.0974 C.3     
  11 C11            1.3236    -0.7137    -0.0920 C.3     
  12 O12           -4.0134    -1.2818     0.0574 O.2     
  13 O13           -1.5219    -2.6845    -1.0022 O.2     
  14 C14           -1.5628    -4.1902     1.3501 C.ar    
  15 C15           -1.5184    -4.8707     2.5492 C.ar    
  16 C16           -1.2293    -4.1950     3.7216 C.ar    
  17 C17           -0.9833    -2.8331     3.7004 C.ar    
  18 C18           -1.0188    -2.1412     2.5080 C.ar    
  19 C19           -1.7857    -6.3534     2.5824 C.3     
  20 F20           -0.5835    -7.0480     2.4112 F       
  21 F21           -2.3518    -6.6977     3.8146 F       
  22 F22           -2.6701    -6.6910     1.5523 F       
  23 H23           -5.5568     0.5388     0.3370 H       
  24 H24            1.3973     2.4862    -1.1384 H       
  25 H25            0.9335     3.2045     0.4228 H       
  26 H26            2.0038     1.7829     0.3800 H       
  27 H27            1.6872    -0.8893     0.9204 H       
  28 H28            1.1736    -1.6690    -0.5951 H       
  29 H29            2.0555    -0.1236    -0.6436 H       
  30 H30           -1.7890    -4.7187     0.4358 H       
  31 H31           -1.1957    -4.7328     4.6576 H       
  32 H32           -0.7586    -2.3119     4.6192 H       
  33 H33           -0.8264    -1.0786     2.4928 H       
@<TRIPOS>BOND
   1    1    2 2
   2    1   10 1
   3    1    5 1
   4    2    3 1
   5    2   11 1
   6    3    4 2
   7    3    8 1
   8    4    5 1
   9    4    6 1
  10    6    7 1
  11    6   12 2
  12    7   23 1
  13    8    9 1
  14    8   13 2
  15    9   14 ar
  16    9   18 ar
  17   10   24 1
  18   10   25 1
  19   10   26 1
  20   11   27 1
  21   11   28 1
  22   11   29 1
  23   14   15 ar
  24   14   30 1
  25   15   16 ar
  26   15   19 1
  27   16   17 ar
  28   16   31 1
  29   17   18 ar
  30   17   32 1
  31   18   33 1
  32   19   20 1
  33   19   21 1
  34   19   22 1

#	End of record

