#	Name: ASD01910044
#	Creating user name:	WinNT
#	Creation time:	15. 06. 2019 19:55

#	Modifying user name:	WinNT
#	Modification time:	15. 06. 2019 19:55

#	Program:	/corina/corina34_cracker 3.40 0067  02.08.2006

@<TRIPOS>MOLECULE
ASD01910044
  43   46    0    0    0
SMALL
NO_CHARGES


@<TRIPOS>ATOM
   1 C1             0.3038     1.3949     0.8887 C.ar    
   2 C2             0.3193     0.0140     0.9076 C.ar    
   3 C3             1.1989    -0.6807     0.0974 C.ar    
   4 C4             2.0656     0.0039    -0.7341 C.ar    
   5 C5             2.0554     1.3861    -0.7580 C.ar    
   6 C6             1.1726     2.0864     0.0550 C.ar    
   7 N7             1.1592     3.4874     0.0336 N.pl3   
   8 C8             0.0537     4.2759    -0.0715 C.2     
   9 C9             0.4672     5.5705    -0.0543 C.2     
  10 C10            1.8697     5.5729     0.0652 C.2     
  11 N11            2.2798     4.3229     0.1228 N.2     
  12 N12           -1.2639     3.8348    -0.1784 N.am    
  13 C13           -2.2766     4.7238    -0.1493 C.2     
  14 C14           -3.6741     4.2559    -0.2626 C.ar    
  15 C15           -4.7252     5.1740    -0.2330 C.ar    
  16 C16           -6.0273     4.7306    -0.3391 C.ar    
  17 C17           -6.2924     3.3795    -0.4748 C.ar    
  18 C18           -5.2552     2.4642    -0.5045 C.ar    
  19 C19           -3.9482     2.8947    -0.4056 C.ar    
  20 C20            2.7361     6.7763     0.1218 C.ar    
  21 C21            4.1175     6.6383     0.2414 C.ar    
  22 C22            4.9186     7.7610     0.2937 C.ar    
  23 C23            4.3525     9.0214     0.2274 C.ar    
  24 C24            2.9817     9.1641     0.1091 C.ar    
  25 C25            2.1717     8.0482     0.0497 C.ar    
  26 O26           -2.0406     5.9103    -0.0300 O.2     
  27 Cl27           3.1442     2.2455    -1.8018 Cl      
  28 H28           -0.3866     1.9363     1.5184 H       
  29 H29           -0.3561    -0.5240     1.5562 H       
  30 H30            1.2090    -1.7605     0.1146 H       
  31 H31            2.7516    -0.5415    -1.3653 H       
  32 H32           -0.1672     6.4420    -0.1208 H       
  33 H33           -1.4522     2.8881    -0.2736 H       
  34 H34           -4.5197     6.2289    -0.1267 H       
  35 H35           -6.8415     5.4398    -0.3160 H       
  36 H36           -7.3135     3.0376    -0.5576 H       
  37 H37           -5.4690     1.4108    -0.6099 H       
  38 H38           -3.1395     2.1792    -0.4289 H       
  39 H39            4.5605     5.6547     0.2936 H       
  40 H40            5.9893     7.6553     0.3868 H       
  41 H41            4.9830     9.8972     0.2687 H       
  42 H42            2.5450    10.1506     0.0581 H       
  43 H43            1.1016     8.1608    -0.0427 H       
@<TRIPOS>BOND
   1    1    2 ar
   2    1    6 ar
   3    1   28 1
   4    2    3 ar
   5    2   29 1
   6    3    4 ar
   7    3   30 1
   8    4    5 ar
   9    4   31 1
  10    5    6 ar
  11    5   27 1
  12    6    7 1
  13    7    8 1
  14    7   11 1
  15    8    9 2
  16    8   12 1
  17    9   10 1
  18    9   32 1
  19   10   11 2
  20   10   20 1
  21   12   13 am
  22   12   33 1
  23   13   14 1
  24   13   26 2
  25   14   15 ar
  26   14   19 ar
  27   15   16 ar
  28   15   34 1
  29   16   17 ar
  30   16   35 1
  31   17   18 ar
  32   17   36 1
  33   18   19 ar
  34   18   37 1
  35   19   38 1
  36   20   21 ar
  37   20   25 ar
  38   21   22 ar
  39   21   39 1
  40   22   23 ar
  41   22   40 1
  42   23   24 ar
  43   23   41 1
  44   24   25 ar
  45   24   42 1
  46   25   43 1

#	End of record

