#	Name: ASD01880267
#	Creating user name:	WinNT
#	Creation time:	15. 06. 2019 19:40

#	Modifying user name:	WinNT
#	Modification time:	15. 06. 2019 19:40

#	Program:	/corina/corina34_cracker 3.40 0067  02.08.2006

@<TRIPOS>MOLECULE
ASD01880267
  36   38    0    0    0
SMALL
NO_CHARGES


@<TRIPOS>ATOM
   1 C1             0.0021    -0.0041     0.0020 C.1     
   2 C2            -0.0173     1.4278     0.0099 C.2     
   3 C3             1.1647     2.1391     0.0024 C.2     
   4 N4             1.1502     3.4887     0.0103 N.am    
   5 C5            -0.0104     4.1691     0.0251 C.2     
   6 C6            -1.2392     3.4848     0.0332 C.2     
   7 C7            -1.2495     2.1243     0.0195 C.2     
   8 O8             0.0031     5.3893     0.0320 O.2     
   9 C9             2.4174     4.2238     0.0031 C.3     
  10 C10            2.8391     4.4840    -1.4201 C.ar    
  11 C11            2.4319     5.6385    -2.0609 C.ar    
  12 C12            2.8196     5.8773    -3.3687 C.ar    
  13 C13            3.6148     4.9589    -4.0325 C.ar    
  14 C14            4.0209     3.8048    -3.3894 C.ar    
  15 C15            3.6380     3.5702    -2.0822 C.ar    
  16 F16            2.4217     7.0055    -3.9965 F       
  17 C17            0.0180    -1.1779    -0.0044 C.1     
  18 C18            0.0374    -2.6098    -0.0123 C.ar    
  19 C19           -1.1591    -3.3390    -0.0048 C.ar    
  20 C20           -1.0848    -4.7205    -0.0129 C.ar    
  21 C21            0.1558    -5.3322    -0.0280 C.ar    
  22 N22            1.2670    -4.6207    -0.0348 N.ar    
  23 C23            1.2500    -3.3042    -0.0334 C.ar    
  24 H24            2.1076     1.6126    -0.0094 H       
  25 H25           -2.1682     4.0355     0.0454 H       
  26 H26           -2.1843     1.5835     0.0254 H       
  27 H27            2.2897     5.1730     0.5236 H       
  28 H28            3.1828     3.6334     0.5067 H       
  29 H29            1.8112     6.3541    -1.5422 H       
  30 H30            3.9175     5.1440    -5.0526 H       
  31 H31            4.6413     3.0882    -3.9071 H       
  32 H32            3.9561     2.6683    -1.5803 H       
  33 H33           -2.1146    -2.8356     0.0073 H       
  34 H34           -1.9863    -5.3153    -0.0071 H       
  35 H35            0.2159    -6.4105    -0.0339 H       
  36 H36            2.1808    -2.7566    -0.0392 H       
@<TRIPOS>BOND
   1    1    2 1
   2    1   17 3
   3    2    3 2
   4    2    7 1
   5    3    4 1
   6    3   24 1
   7    4    5 am
   8    4    9 1
   9    5    6 1
  10    5    8 2
  11    6    7 2
  12    6   25 1
  13    7   26 1
  14    9   10 1
  15    9   27 1
  16    9   28 1
  17   10   11 ar
  18   10   15 ar
  19   11   12 ar
  20   11   29 1
  21   12   13 ar
  22   12   16 1
  23   13   14 ar
  24   13   30 1
  25   14   15 ar
  26   14   31 1
  27   15   32 1
  28   17   18 1
  29   18   19 ar
  30   18   23 ar
  31   19   20 ar
  32   19   33 1
  33   20   21 ar
  34   20   34 1
  35   21   22 ar
  36   21   35 1
  37   22   23 ar
  38   23   36 1

#	End of record

