#	Name: ASD01840501
#	Creating user name:	WinNT
#	Creation time:	15. 06. 2019 19:37

#	Modifying user name:	WinNT
#	Modification time:	15. 06. 2019 19:37

#	Program:	/corina/corina34_cracker 3.40 0067  02.08.2006

@<TRIPOS>MOLECULE
ASD01840501
  45   48    0    0    0
SMALL
NO_CHARGES


@<TRIPOS>ATOM
   1 Cl1            0.0000     0.0000     0.0000 Cl      
   2 H2             0.0000     1.3700     0.0000 H       
   3 C3            10.2414    22.0207     6.2379 C.3     
   4 C4            10.0056    20.5324     6.2200 C.ar    
   5 N5            10.0048    19.8781     5.0727 N.ar    
   6 N6             9.8099    18.6148     5.0000 N.ar    
   7 C7             9.5922    17.8615     6.0817 C.ar    
   8 S8             9.3042    16.1350     6.2226 S.3     
   9 C9             9.1581    16.2078     7.9700 C.ar    
  10 C10            8.9110    15.1890     8.9087 C.ar    
  11 N11            8.7412    13.8782     8.4750 N.pl3   
  12 C12            8.4837    12.8126     9.4468 C.3     
  13 C13            7.0411    12.2766     9.4106 C.3     
  14 N14            7.5371    11.2913     8.4246 N.3     
  15 C15            8.9102    11.4154     8.9617 C.3     
  16 C16            7.0174    10.0320     8.6765 C.ar    
  17 N17            6.1891     9.8673     9.6969 N.ar    
  18 C18            5.6746     8.6786     9.9658 C.ar    
  19 C19            6.0128     7.5979     9.1634 C.ar    
  20 F20            5.5056     6.3700     9.4088 F       
  21 C21            6.8834     7.8070     8.1030 C.ar    
  22 N22            7.3568     9.0235     7.8877 N.ar    
  23 N23            8.8393    15.4660    10.1965 N.ar    
  24 C24            8.9940    16.6966    10.6559 C.ar    
  25 C25            9.2359    17.7405     9.8154 C.ar    
  26 C26            9.3244    17.5081     8.4242 C.ar    
  27 C27            9.5747    18.4627     7.3380 C.ar    
  28 C28            9.7964    19.8533     7.4029 C.ar    
  29 C29            9.7995    20.5777     8.7243 C.3     
  30 H30           11.3095    22.2183     6.3285 H       
  31 H31            9.8681    22.4588     5.3122 H       
  32 H32            9.7171    22.4615     7.0858 H       
  33 H33            8.7934    13.6698     7.5291 H       
  34 H34            8.8379    13.0564    10.4484 H       
  35 H35            6.7145    11.8312    10.3503 H       
  36 H36            6.3200    12.9836     9.0004 H       
  37 H37            9.6825    11.4343     8.1927 H       
  38 H38            9.1302    10.7181     9.7700 H       
  39 H39            5.0000     8.5506    10.7994 H       
  40 H40            7.1676     6.9878     7.4592 H       
  41 H41            8.9269    16.8772    11.7186 H       
  42 H42            9.3591    18.7386    10.2091 H       
  43 H43            8.7752    20.8173     9.0098 H       
  44 H44           10.2497    19.9415     9.4864 H       
  45 H45           10.3759    21.4983     8.6327 H       
@<TRIPOS>BOND
   1    1    2 1
   2    3    4 1
   3    3   30 1
   4    3   31 1
   5    3   32 1
   6    4   28 ar
   7    4    5 ar
   8    5    6 ar
   9    6    7 ar
  10    7   27 ar
  11    7    8 1
  12    8    9 1
  13    9   26 ar
  14    9   10 ar
  15   10   11 1
  16   10   23 ar
  17   11   12 1
  18   11   33 1
  19   12   15 1
  20   12   13 1
  21   12   34 1
  22   13   14 1
  23   13   35 1
  24   13   36 1
  25   14   15 1
  26   14   16 1
  27   15   37 1
  28   15   38 1
  29   16   22 ar
  30   16   17 ar
  31   17   18 ar
  32   18   19 ar
  33   18   39 1
  34   19   20 1
  35   19   21 ar
  36   21   22 ar
  37   21   40 1
  38   23   24 ar
  39   24   25 ar
  40   24   41 1
  41   25   26 ar
  42   25   42 1
  43   26   27 1
  44   27   28 ar
  45   28   29 1
  46   29   43 1
  47   29   44 1
  48   29   45 1

#	End of record

