#	Name: ASD02610049
#	Creating user name:	WinNT
#	Creation time:	15. 06. 2019 20:25

#	Modifying user name:	WinNT
#	Modification time:	15. 06. 2019 20:25

#	Program:	/corina/corina34_cracker 3.40 0067  02.08.2006

@<TRIPOS>MOLECULE
ASD02610049
  57   60    0    0    0
SMALL
NO_CHARGES


@<TRIPOS>ATOM
   1 O1            -0.0244     1.1353     1.0925 O.3     
   2 C2             1.2505     1.7304     1.4512 C.3     
   3 C3             1.2653     3.2295     1.0947 C.3     
   4 C4             1.4481     1.7036     2.9864 C.3     
   5 O5             0.1941     1.5782     3.6599 O.3     
   6 C6             2.0846     3.0908     3.2562 C.3     
   7 O7             1.4052     3.9600     2.3248 O.3     
   8 N8             1.8322     3.5148     4.6356 N.pl3   
   9 C9             2.4474     3.5332     0.1720 C.3     
  10 C10            2.5766     3.1776     5.7376 C.ar    
  11 C11            1.9603     3.8108     6.8299 C.ar    
  12 N12            0.8916     4.4891     6.3472 N.2     
  13 C13            0.8181     4.3215     5.0587 C.2     
  14 N14            3.6622     2.4397     5.9470 N.ar    
  15 C15            4.1560     2.3017     7.1592 C.ar    
  16 N16            3.6116     2.8769     8.2162 N.ar    
  17 C17            2.5245     3.6328     8.1048 C.ar    
  18 N18            1.9612     4.2313     9.2182 N.pl3   
  19 O19            2.3867     4.8982    -0.2464 O.3     
  20 P20            3.4762     5.5641    -1.2271 P.3     
  21 O21            4.8897     5.3686    -0.6349 O.co2   
  22 O22            3.4012     4.8886    -2.6146 O.co2   
  23 O23            3.1709     7.1375    -1.3790 O.3     
  24 P24            4.0136     8.3917    -1.9348 P.3     
  25 O25            3.3879     9.7576    -1.3559 O.3     
  26 O26            5.4848     8.2659    -1.4800 O.co2   
  27 O27            3.9516     8.4105    -3.4784 O.co2   
  28 P28            3.9102    11.2780    -1.2681 P.3     
  29 O29            4.7669    11.6099    -2.5371 O.co2   
  30 O30            2.6825    12.2487    -1.1983 O.co2   
  31 O31            4.7895    11.4548     0.0165 O.co2   
  32 C32           -0.0163    -0.1679     0.7492 C.2     
  33 C33           -1.2728    -0.8384     0.3734 C.ar    
  34 O34            1.0277    -0.7899     0.7497 O.2     
  35 C35           -2.4919    -0.1642     0.4895 C.ar    
  36 C36           -3.6632    -0.7969     0.1365 C.ar    
  37 C37           -3.6409    -2.1006    -0.3342 C.ar    
  38 C38           -2.4464    -2.7800    -0.4542 C.ar    
  39 C39           -1.2532    -2.1568    -0.1091 C.ar    
  40 N40           -0.0497    -2.8383    -0.2290 N.pl3   
  41 H41            2.0674     1.2110     0.9502 H       
  42 H42            0.3306     3.5034     0.6053 H       
  43 H43            2.1258     0.9009     3.2774 H       
  44 H44            0.2658     1.5569     4.6240 H       
  45 H45            3.1552     3.0681     3.0527 H       
  46 H46            3.3806     3.3585     0.7075 H       
  47 H47            2.4027     2.8830    -0.7017 H       
  48 H48            0.0607     4.7515     4.4201 H       
  49 H49            5.0393     1.6952     7.2947 H       
  50 H50            2.3600     4.1012    10.0928 H       
  51 H51            1.1675     4.7810     9.1240 H       
  52 H52           -2.5153     0.8515     0.8559 H       
  53 H53           -4.6041    -0.2746     0.2272 H       
  54 H54           -4.5650    -2.5878    -0.6083 H       
  55 H55           -2.4379    -3.7957    -0.8211 H       
  56 H56           -0.0395    -3.8082    -0.2294 H       
  57 H57            0.7811    -2.3445    -0.3124 H       
@<TRIPOS>BOND
   1    1   32 1
   2    1    2 1
   3    2    3 1
   4    2    4 1
   5    2   41 1
   6    3    7 1
   7    3    9 1
   8    3   42 1
   9    4    5 1
  10    4    6 1
  11    4   43 1
  12    5   44 1
  13    6    8 1
  14    6    7 1
  15    6   45 1
  16    8   10 1
  17    8   13 1
  18    9   19 1
  19    9   46 1
  20    9   47 1
  21   10   11 ar
  22   10   14 ar
  23   11   12 1
  24   11   17 ar
  25   12   13 2
  26   13   48 1
  27   14   15 ar
  28   15   16 ar
  29   15   49 1
  30   16   17 ar
  31   17   18 1
  32   18   50 1
  33   18   51 1
  34   19   20 1
  35   20   21 ar
  36   20   22 ar
  37   20   23 1
  38   23   24 1
  39   24   25 1
  40   24   26 ar
  41   24   27 ar
  42   25   28 1
  43   28   29 ar
  44   28   30 ar
  45   28   31 ar
  46   32   33 1
  47   32   34 2
  48   33   35 ar
  49   33   39 ar
  50   35   36 ar
  51   35   52 1
  52   36   37 ar
  53   36   53 1
  54   37   38 ar
  55   37   54 1
  56   38   39 ar
  57   38   55 1
  58   39   40 1
  59   40   56 1
  60   40   57 1

#	End of record

