#	Name: ASD03090488
#	Creating user name:	WinNT
#	Creation time:	15. 06. 2019 20:28

#	Modifying user name:	WinNT
#	Modification time:	15. 06. 2019 20:28

#	Program:	/corina/corina34_cracker 3.40 0067  02.08.2006

@<TRIPOS>MOLECULE
ASD03090488
  43   46    0    0    0
SMALL
NO_CHARGES


@<TRIPOS>ATOM
   1 C1            -0.3986     1.4813     1.3453 C.2     
   2 C2            -0.4706     0.0113     1.6697 C.3     
   3 O3             0.6795     2.0215     1.2154 O.2     
   4 N4            -1.5323     2.1943     1.1940 N.am    
   5 C5            -1.4683     3.5768     1.0130 C.ar    
   6 C6            -0.3074     4.2616     1.3536 C.ar    
   7 C7            -0.2545     5.6315     1.1698 C.ar    
   8 C8            -1.3740     6.2745     0.6473 C.ar    
   9 C9            -2.4967     5.5266     0.3307 C.ar    
  10 N10           -2.5112     4.2202     0.5142 N.ar    
  11 O11           -1.3655     7.6198     0.4507 O.3     
  12 C12           -0.2310     8.3021     0.7568 C.ar    
  13 C13            0.7521     8.4833    -0.2056 C.ar    
  14 C14            1.9043     9.1778     0.1080 C.ar    
  15 C15            2.0787     9.6917     1.3797 C.ar    
  16 C16            1.1009     9.5121     2.3408 C.ar    
  17 C17           -0.0559     8.8238     2.0306 C.ar    
  18 N18            3.6972    -2.1425    -0.1512 N.pl3   
  19 C19            4.8641    -2.4908     0.4729 C.2     
  20 C20            4.7998    -2.1708     1.7750 C.2     
  21 C21            3.4842    -1.5684     2.0035 C.ar    
  22 C22            2.8379    -1.0453     3.1252 C.ar    
  23 C23            1.5726    -0.5435     3.0065 C.ar    
  24 C24            0.9246    -0.5479     1.7787 C.ar    
  25 C25            1.5438    -1.0587     0.6593 C.ar    
  26 C26            2.8317    -1.5756     0.7573 C.ar    
  27 H27           -0.9923    -0.1266     2.6167 H       
  28 H28           -1.0099    -0.5094     0.8784 H       
  29 H29           -2.3926     1.7466     1.2109 H       
  30 H30            0.5423     3.7308     1.7569 H       
  31 H31            0.6341     6.1895     1.4258 H       
  32 H32           -3.3686     6.0183    -0.0749 H       
  33 H33            0.6167     8.0815    -1.1989 H       
  34 H34            2.6697     9.3191    -0.6407 H       
  35 H35            2.9804    10.2340     1.6230 H       
  36 H36            1.2397     9.9143     3.3334 H       
  37 H37           -0.8213     8.6877     2.7803 H       
  38 H38            3.5093    -2.2720    -1.0939 H       
  39 H39            5.7112    -2.9546    -0.0105 H       
  40 H40            5.5716    -2.3277     2.5139 H       
  41 H41            3.3358    -1.0386     4.0835 H       
  42 H42            1.0730    -0.1394     3.8745 H       
  43 H43            1.0311    -1.0580    -0.2913 H       
@<TRIPOS>BOND
   1    1    2 1
   2    1    3 2
   3    1    4 am
   4    2   24 1
   5    2   27 1
   6    2   28 1
   7    4    5 1
   8    4   29 1
   9    5    6 ar
  10    5   10 ar
  11    6    7 ar
  12    6   30 1
  13    7    8 ar
  14    7   31 1
  15    8    9 ar
  16    8   11 1
  17    9   10 ar
  18    9   32 1
  19   11   12 1
  20   12   13 ar
  21   12   17 ar
  22   13   14 ar
  23   13   33 1
  24   14   15 ar
  25   14   34 1
  26   15   16 ar
  27   15   35 1
  28   16   17 ar
  29   16   36 1
  30   17   37 1
  31   18   19 1
  32   18   26 1
  33   18   38 1
  34   19   20 2
  35   19   39 1
  36   20   21 1
  37   20   40 1
  38   21   22 ar
  39   21   26 ar
  40   22   23 ar
  41   22   41 1
  42   23   24 ar
  43   23   42 1
  44   24   25 ar
  45   25   26 ar
  46   25   43 1

#	End of record

