#	Name: ASD06020179
#	Creating user name:	WinNT
#	Creation time:	15. 06. 2019 21:04

#	Modifying user name:	WinNT
#	Modification time:	15. 06. 2019 21:04

#	Program:	/corina/corina34_cracker 3.40 0067  02.08.2006

@<TRIPOS>MOLECULE
ASD06020179
  24   26    0    0    0
SMALL
NO_CHARGES


@<TRIPOS>ATOM
   1 C1             0.0021    -0.0041     0.0020 C.1     
   2 C2            -0.0173     1.4278     0.0099 C.ar    
   3 C3             1.1901     2.1532     0.0023 C.ar    
   4 C4             1.1549     3.5473     0.0096 C.ar    
   5 C5            -0.0594     4.2072     0.0243 C.ar    
   6 C6            -1.2454     3.4935     0.0317 C.ar    
   7 C7            -1.2316     2.1130     0.0193 C.ar    
   8 N8             0.0175    -1.1399    -0.0042 N.1     
   9 C9             5.4558    -1.0633    -0.0523 C.ar    
  10 C10            4.4224    -0.1295    -0.0382 C.ar    
  11 C11            4.7265     1.2391    -0.0340 C.ar    
  12 C12            6.0993     1.5936    -0.0440 C.ar    
  13 C13            7.0431     0.6113    -0.0570 C.ar    
  14 N14            6.7124    -0.6699    -0.0615 N.ar    
  15 S15            2.6713    -0.3067    -0.0235 S.3     
  16 C16            2.4845     1.4423    -0.0129 C.2     
  17 N17            3.6432     2.0161    -0.0204 N.2     
  18 F18            6.4679     2.8934    -0.0412 F       
  19 Cl19           5.0842    -2.7591    -0.0503 Cl      
  20 Cl20           2.6357     4.4534     0.0009 Cl      
  21 H21           -0.0830     5.2869     0.0303 H       
  22 H22           -2.1882     4.0202     0.0432 H       
  23 H23           -2.1615     1.5638     0.0211 H       
  24 H24            8.0878     0.8852    -0.0647 H       
@<TRIPOS>BOND
   1    1    2 1
   2    1    8 3
   3    2    3 ar
   4    2    7 ar
   5    3    4 ar
   6    3   16 1
   7    4    5 ar
   8    4   20 1
   9    5    6 ar
  10    5   21 1
  11    6    7 ar
  12    6   22 1
  13    7   23 1
  14    9   10 ar
  15    9   14 ar
  16    9   19 1
  17   10   11 ar
  18   10   15 1
  19   11   12 ar
  20   11   17 1
  21   12   13 ar
  22   12   18 1
  23   13   14 ar
  24   13   24 1
  25   15   16 1
  26   16   17 2

#	End of record

