#	Name: ASD02560557
#	Creating user name:	WinNT
#	Creation time:	15. 06. 2019 20:25

#	Modifying user name:	WinNT
#	Modification time:	15. 06. 2019 20:25

#	Program:	/corina/corina34_cracker 3.40 0067  02.08.2006

@<TRIPOS>MOLECULE
ASD02560557
  55   59    0    0    0
SMALL
NO_CHARGES


@<TRIPOS>ATOM
   1 N1            -0.0228     1.2816    -0.0579 N.2     
   2 N2            -0.0040    -0.0033    -0.0528 N.2     
   3 C3             1.1943     1.7487    -0.0793 C.2     
   4 N4             2.0428     0.6728    -0.0883 N.pl3   
   5 C5             1.2360    -0.4331    -0.0708 C.2     
   6 S6             1.7625    -2.1146    -0.0721 S.3     
   7 C7             0.1556    -2.9471    -0.0430 C.3     
   8 C8             0.3632    -4.4398    -0.0400 C.2     
   9 O9             1.4868    -4.8958    -0.0560 O.2     
  10 N10           -0.7000    -5.2679    -0.0195 N.am    
  11 C11            3.4422     0.6990    -0.1115 C.ar    
  12 Br12           1.6953     3.5721    -0.0959 Br      
  13 C13            4.1563     0.7170     1.0663 C.ar    
  14 C14            5.5479     0.7426     1.0546 C.ar    
  15 C15            6.2409     0.7507    -0.1173 C.ar    
  16 C16            5.5499     0.7329    -1.3406 C.ar    
  17 C17            4.1335     0.7014    -1.3409 C.ar    
  18 C18           -0.5133    -6.6447    -0.1340 C.ar    
  19 C19           -1.3576    -7.5185     0.5447 C.ar    
  20 C20           -1.1766    -8.8782     0.4337 C.ar    
  21 C21           -0.1429    -9.3816    -0.3621 C.ar    
  22 C22            0.7031    -8.5010    -1.0424 C.ar    
  23 C23            0.5129    -7.1421    -0.9309 C.ar    
  24 C24            0.0544   -10.8379    -0.4831 C.2     
  25 O25           -0.6816   -11.6020     0.1091 O.2     
  26 O26            1.0511   -11.3213    -1.2505 O.3     
  27 C27            7.7476     0.7791    -0.1025 C.3     
  28 C28            8.4250     1.9702     0.5780 C.3     
  29 C29            8.4444     0.5944     1.2471 C.3     
  30 C30            3.4444     0.6833    -2.5640 C.ar    
  31 C31            6.2384     0.7406    -2.5663 C.ar    
  32 C32            5.5374     0.7230    -3.7326 C.ar    
  33 C33            4.1441     0.6962    -3.7318 C.ar    
  34 C34           -2.4711    -6.9750     1.4026 C.3     
  35 H35           -0.3891    -2.6542     0.8546 H       
  36 H36           -0.4175    -2.6617    -0.9251 H       
  37 H37           -1.5949    -4.9060     0.0748 H       
  38 H38            3.6304     0.7115     2.0096 H       
  39 H39            6.0868     0.7567     1.9905 H       
  40 H40           -1.8319    -9.5557     0.9610 H       
  41 H41            1.5028    -8.8863    -1.6576 H       
  42 H42            1.1662    -6.4611    -1.4562 H       
  43 H43            1.1410   -12.2829    -1.2988 H       
  44 H44            8.2344     0.3584    -0.9823 H       
  45 H45            9.3577     2.3330     0.1461 H       
  46 H46            7.7810     2.7334     1.0150 H       
  47 H47            7.8130     0.4524     2.1242 H       
  48 H48            9.3898     0.0520     1.2553 H       
  49 H49            2.3648     0.6589    -2.5784 H       
  50 H50            7.3181     0.7608    -2.5822 H       
  51 H51            6.0688     0.7294    -4.6728 H       
  52 H52            3.6116     0.6824    -4.6713 H       
  53 H53           -3.3720    -6.8617     0.7997 H       
  54 H54           -2.6674    -7.6650     2.2232 H       
  55 H55           -2.1791    -6.0051     1.8054 H       
@<TRIPOS>BOND
   1    1    2 1
   2    1    3 2
   3    2    5 2
   4    3    4 1
   5    3   12 1
   6    4    5 1
   7    4   11 1
   8    5    6 1
   9    6    7 1
  10    7    8 1
  11    7   35 1
  12    7   36 1
  13    8    9 2
  14    8   10 am
  15   10   18 1
  16   10   37 1
  17   11   13 ar
  18   11   17 ar
  19   13   14 ar
  20   13   38 1
  21   14   15 ar
  22   14   39 1
  23   15   16 ar
  24   15   27 1
  25   16   17 ar
  26   16   31 ar
  27   17   30 ar
  28   18   19 ar
  29   18   23 ar
  30   19   20 ar
  31   19   34 1
  32   20   21 ar
  33   20   40 1
  34   21   22 ar
  35   21   24 1
  36   22   23 ar
  37   22   41 1
  38   23   42 1
  39   24   25 2
  40   24   26 1
  41   26   43 1
  42   27   28 1
  43   27   29 1
  44   27   44 1
  45   28   29 1
  46   28   45 1
  47   28   46 1
  48   29   47 1
  49   29   48 1
  50   30   33 ar
  51   30   49 1
  52   31   32 ar
  53   31   50 1
  54   32   33 ar
  55   32   51 1
  56   33   52 1
  57   34   53 1
  58   34   54 1
  59   34   55 1

#	End of record

