#	Name: ASD03200006
#	Creating user name:	WinNT
#	Creation time:	15. 06. 2019 20:34

#	Modifying user name:	WinNT
#	Modification time:	15. 06. 2019 20:34

#	Program:	/corina/corina34_cracker 3.40 0067  02.08.2006

@<TRIPOS>MOLECULE
ASD03200006
  50   53    0    0    0
SMALL
NO_CHARGES


@<TRIPOS>ATOM
   1 C1             0.9780    -1.0818    -0.1552 C.3     
   2 N2            -0.0060    -0.0048     0.0134 N.3     
   3 C3             0.3367     0.8536     1.1544 C.3     
   4 C4             1.6937     1.5163     0.9065 C.3     
   5 C5             2.7593     0.4324     0.7212 C.3     
   6 C6             2.3541    -0.4769    -0.4422 C.3     
   7 C7            -1.2941    -0.5212     0.1458 C.ar    
   8 C8            -1.9982    -0.3884     1.3399 C.ar    
   9 C9            -3.2714    -0.9135     1.4315 C.ar    
  10 N10           -3.8246    -1.5357     0.4077 N.ar    
  11 C11           -3.1947    -1.6848    -0.7425 C.ar    
  12 C12           -1.9164    -1.1821    -0.9200 C.ar    
  13 N13           -1.2518    -1.3431    -2.1433 N.am    
  14 C14           -1.4391    -2.4628    -2.8697 C.2     
  15 C15           -0.6746    -2.6731    -4.1018 C.2     
  16 O16           -2.2435    -3.2995    -2.5021 O.2     
  17 C17           -0.8909    -3.7449    -4.9400 C.2     
  18 S18            0.2321    -3.6148    -6.2913 S.3     
  19 C19            0.8930    -2.1323    -5.6111 C.2     
  20 N20            0.2840    -1.8402    -4.5073 N.2     
  21 C21            1.9813    -1.3346    -6.2149 C.ar    
  22 C22            2.6388    -1.7966    -7.3555 C.ar    
  23 C23            3.6541    -1.0465    -7.9148 C.ar    
  24 C24            4.0202     0.1615    -7.3466 C.ar    
  25 C25            3.3725     0.6256    -6.2158 C.ar    
  26 C26            2.3519    -0.1122    -5.6495 C.ar    
  27 N27            2.0458     2.3585     2.0575 N.3     
  28 N28           -1.8234    -4.7453    -4.7536 N.pl3   
  29 Cl29           1.5402     0.4717    -4.2304 Cl      
  30 Br30           4.5471    -1.6712    -9.4602 Br      
  31 H31            1.0257    -1.6763     0.7571 H       
  32 H32            0.6803    -1.7186    -0.9883 H       
  33 H33           -0.4268     1.6225     1.2726 H       
  34 H34            0.3874     0.2501     2.0607 H       
  35 H35            1.6398     2.1310     0.0080 H       
  36 H36            3.7194     0.8993     0.5014 H       
  37 H37            2.8408    -0.1581     1.6337 H       
  38 H38            3.0872    -1.2760    -0.5519 H       
  39 H39            2.3106     0.1065    -1.3620 H       
  40 H40           -1.5537     0.1185     2.1836 H       
  41 H41           -3.8228    -0.8139     2.3547 H       
  42 H42           -3.6831    -2.2010    -1.5557 H       
  43 H43           -0.6570    -0.6487    -2.4671 H       
  44 H44            2.3545    -2.7391    -7.7996 H       
  45 H45            4.8153     0.7442    -7.7879 H       
  46 H46            3.6629     1.5689    -5.7774 H       
  47 H47            2.9732     2.7425     1.9543 H       
  48 H48            1.3643     3.0903     2.1920 H       
  49 H49           -2.4004    -4.7314    -3.9739 H       
  50 H50           -1.9019    -5.4623    -5.4022 H       
@<TRIPOS>BOND
   1    1    2 1
   2    1    6 1
   3    1   31 1
   4    1   32 1
   5    2    3 1
   6    2    7 1
   7    3    4 1
   8    3   33 1
   9    3   34 1
  10    4    5 1
  11    4   27 1
  12    4   35 1
  13    5    6 1
  14    5   36 1
  15    5   37 1
  16    6   38 1
  17    6   39 1
  18    7    8 ar
  19    7   12 ar
  20    8    9 ar
  21    8   40 1
  22    9   10 ar
  23    9   41 1
  24   10   11 ar
  25   11   12 ar
  26   11   42 1
  27   12   13 1
  28   13   14 am
  29   13   43 1
  30   14   15 1
  31   14   16 2
  32   15   17 2
  33   15   20 1
  34   17   18 1
  35   17   28 1
  36   18   19 1
  37   19   20 2
  38   19   21 1
  39   21   22 ar
  40   21   26 ar
  41   22   23 ar
  42   22   44 1
  43   23   24 ar
  44   23   30 1
  45   24   25 ar
  46   24   45 1
  47   25   26 ar
  48   25   46 1
  49   26   29 1
  50   27   47 1
  51   27   48 1
  52   28   49 1
  53   28   50 1

#	End of record

