#	Name: ASD01884513
#	Creating user name:	WinNT
#	Creation time:	15. 06. 2019 19:48

#	Modifying user name:	WinNT
#	Modification time:	15. 06. 2019 19:48

#	Program:	/corina/corina34_cracker 3.40 0067  02.08.2006

@<TRIPOS>MOLECULE
ASD01884513
  65   67    0    0    0
SMALL
NO_CHARGES


@<TRIPOS>ATOM
   1 C1            -0.0168     1.3884     0.0097 C.2     
   2 C2             0.0021    -0.0041     0.0020 C.2     
   3 C3            -1.2095    -0.6965     0.0104 C.2     
   4 C4            -2.3831    -0.0157     0.0252 C.2     
   5 N5            -2.4093     1.3392     0.0327 N.am    
   6 C6            -1.2693     2.0558     0.0312 C.2     
   7 O7            -1.3129     3.2741     0.0383 O.2     
   8 C8            -3.6983     2.0352     0.0483 C.3     
   9 C9            -4.1273     2.2662     1.4744 C.ar    
  10 C10           -3.7545     3.4263     2.1279 C.ar    
  11 C11           -4.1464     3.6404     3.4352 C.ar    
  12 C12           -4.9147     2.6903     4.0923 C.ar    
  13 C13           -5.2875     1.5272     3.4343 C.ar    
  14 C14           -4.8977     1.3204     2.1252 C.ar    
  15 C15            1.2059     2.1337     0.0020 C.1     
  16 N16            2.1759     2.7249    -0.0041 N.1     
  17 C17            1.3105    -0.7515    -0.0155 C.3     
  18 N18            1.6901    -1.1066     1.3585 N.3     
  19 C19            2.8290    -2.0352     1.3670 C.3     
  20 C20            3.2431    -2.3172     2.8131 C.3     
  21 N21            2.1012    -2.8822     3.5456 N.3     
  22 C22            0.9623    -1.9536     3.5371 C.3     
  23 C23            0.5482    -1.6716     2.0910 C.3     
  24 C24            2.4808    -3.2373     4.9196 C.3     
  25 O25            1.3206    -3.2202     5.7538 O.3     
  26 C26            0.5101    -4.3079     5.7045 C.ar    
  27 C27            0.8093    -5.3842     4.8732 C.ar    
  28 C28           -0.0397    -6.4718     4.8520 C.ar    
  29 N29           -1.1222    -6.4993     5.6059 N.ar    
  30 C30           -1.4393    -5.4990     6.4063 C.ar    
  31 C31           -0.6390    -4.3783     6.4884 C.ar    
  32 C32           -2.6886    -5.5843     7.2449 C.3     
  33 O33           -5.3012     2.8985     5.3784 O.3     
  34 C34           -6.0908     1.8776     5.9919 C.3     
  35 F35           -5.3726     0.6771     6.0047 F       
  36 F36           -6.3981     2.2513     7.3045 F       
  37 F37           -7.2748     1.7050     5.2669 F       
  38 H38           -1.2130    -1.7765     0.0046 H       
  39 H39           -3.3137    -0.5638     0.0308 H       
  40 H40           -3.5999     2.9937    -0.4613 H       
  41 H41           -4.4456     1.4275    -0.4619 H       
  42 H42           -3.1561     4.1654     1.6161 H       
  43 H43           -3.8547     4.5465     3.9453 H       
  44 H44           -5.8856     0.7861     3.9437 H       
  45 H45           -5.1876     0.4151     1.6125 H       
  46 H46            1.2023    -1.6595    -0.6087 H       
  47 H47            2.0835    -0.1207    -0.4544 H       
  48 H48            2.5411    -2.9683     0.8826 H       
  49 H49            3.6659    -1.5892     0.8295 H       
  50 H50            4.0692    -3.0283     2.8228 H       
  51 H51            3.5569    -1.3883     3.2893 H       
  52 H52            0.1254    -2.3996     4.0746 H       
  53 H53            1.2502    -1.0205     4.0215 H       
  54 H54           -0.2779    -0.9605     2.0813 H       
  55 H55            0.2344    -2.6005     1.6148 H       
  56 H56            2.9203    -4.2347     4.9289 H       
  57 H57            3.2078    -2.5164     5.2935 H       
  58 H58            1.6936    -5.3678     4.2533 H       
  59 H59            0.1845    -7.3108     4.2100 H       
  60 H60           -0.9041    -3.5634     7.1456 H       
  61 H61           -2.4507    -6.0409     8.2056 H       
  62 H62           -3.0863    -4.5826     7.4072 H       
  63 H63           -3.4322    -6.1912     6.7283 H       
  64 Cl64           9.0692     9.5465    13.2056 Cl      
  65 H65            9.0692    10.9165    13.2056 H       
@<TRIPOS>BOND
   1    1    2 2
   2    1   15 1
   3    1    6 1
   4    2    3 1
   5    2   17 1
   6    3    4 2
   7    3   38 1
   8    4    5 1
   9    4   39 1
  10    5    8 1
  11    5    6 am
  12    6    7 2
  13    8    9 1
  14    8   40 1
  15    8   41 1
  16    9   10 ar
  17    9   14 ar
  18   10   11 ar
  19   10   42 1
  20   11   12 ar
  21   11   43 1
  22   12   33 1
  23   12   13 ar
  24   13   14 ar
  25   13   44 1
  26   14   45 1
  27   15   16 3
  28   17   18 1
  29   17   46 1
  30   17   47 1
  31   18   19 1
  32   18   23 1
  33   19   20 1
  34   19   48 1
  35   19   49 1
  36   20   21 1
  37   20   50 1
  38   20   51 1
  39   21   22 1
  40   21   24 1
  41   22   23 1
  42   22   52 1
  43   22   53 1
  44   23   54 1
  45   23   55 1
  46   24   25 1
  47   24   56 1
  48   24   57 1
  49   25   26 1
  50   26   27 ar
  51   26   31 ar
  52   27   28 ar
  53   27   58 1
  54   28   29 ar
  55   28   59 1
  56   29   30 ar
  57   30   31 ar
  58   30   32 1
  59   31   60 1
  60   32   61 1
  61   32   62 1
  62   32   63 1
  63   33   34 1
  64   34   35 1
  65   34   36 1
  66   34   37 1
  67   64   65 1

#	End of record

