#	Name: ASD00122017
#	Creating user name:	WinNT
#	Creation time:	15. 06. 2019 18:31

#	Modifying user name:	WinNT
#	Modification time:	15. 06. 2019 18:31

#	Program:	/corina/corina34_cracker 3.40 0067  02.08.2006

@<TRIPOS>MOLECULE
ASD00122017
  34   34    0    0    0
SMALL
NO_CHARGES


@<TRIPOS>ATOM
   1 C1            -0.0167     1.3794     0.0096 C.ar    
   2 C2             0.0021    -0.0041     0.0020 C.ar    
   3 C3             1.2061    -0.6856    -0.0127 C.ar    
   4 C4             2.3966     0.0113    -0.0198 C.ar    
   5 C5             2.3848     1.4070    -0.0127 C.ar    
   6 C6             1.1667     2.0884     0.0021 C.ar    
   7 C7             3.6569     2.1603    -0.0198 C.2     
   8 N8             3.6421     3.5079    -0.0128 N.am    
   9 O9             4.7162     1.5642    -0.0318 O.2     
  10 C10            4.9026     4.2544    -0.0199 C.3     
  11 C11            4.6701     5.6422    -0.6205 C.3     
  12 C12            5.4178     4.3989     1.4135 C.3     
  13 C13            5.7683     3.0178     1.9711 C.3     
  14 C14            4.2749     5.5015    -2.0919 C.3     
  15 C15           -1.2946    -0.7719     0.0103 C.3     
  16 H16           -0.9599     1.9054     0.0169 H       
  17 H17            1.2138    -1.7656    -0.0182 H       
  18 H18            3.3358    -0.5219    -0.0305 H       
  19 H19            1.1507     3.1682     0.0077 H       
  20 H20            2.7968     3.9836    -0.0032 H       
  21 H21            5.6391     3.7182    -0.6183 H       
  22 H22            3.8706     6.1445    -0.0760 H       
  23 H23            5.5856     6.2289    -0.5448 H       
  24 H24            6.3072     5.0290     1.4182 H       
  25 H25            4.6457     4.8555     2.0328 H       
  26 H26            6.5404     2.5612     1.3518 H       
  27 H27            6.1353     3.1207     2.9923 H       
  28 H28            4.8789     2.3877     1.9664 H       
  29 H29            5.0744     4.9992    -2.6364 H       
  30 H30            3.3594     4.9148    -2.1676 H       
  31 H31            4.1092     6.4902    -2.5198 H       
  32 H32           -1.6170    -0.9516    -1.0154 H       
  33 H33           -1.1489    -1.7256     0.5176 H       
  34 H34           -2.0557    -0.1941     0.5345 H       
@<TRIPOS>BOND
   1    1    2 ar
   2    1    6 ar
   3    1   16 1
   4    2    3 ar
   5    2   15 1
   6    3    4 ar
   7    3   17 1
   8    4    5 ar
   9    4   18 1
  10    5    6 ar
  11    5    7 1
  12    6   19 1
  13    7    8 am
  14    7    9 2
  15    8   10 1
  16    8   20 1
  17   10   11 1
  18   10   12 1
  19   10   21 1
  20   11   14 1
  21   11   22 1
  22   11   23 1
  23   12   13 1
  24   12   24 1
  25   12   25 1
  26   13   26 1
  27   13   27 1
  28   13   28 1
  29   14   29 1
  30   14   30 1
  31   14   31 1
  32   15   32 1
  33   15   33 1
  34   15   34 1

#	End of record

