#	Name: ASD03731297
#	Creating user name:	WinNT
#	Creation time:	15. 06. 2019 20:45

#	Modifying user name:	WinNT
#	Modification time:	15. 06. 2019 20:45

#	Program:	/corina/corina34_cracker 3.40 0067  02.08.2006

@<TRIPOS>MOLECULE
ASD03731297
  56   61    0    0    0
SMALL
NO_CHARGES


@<TRIPOS>ATOM
   1 C1            -0.0180     1.4734     0.0101 C.2     
   2 C2             0.0021    -0.0041     0.0020 C.ar    
   3 C3             1.2187    -0.6887    -0.0133 C.ar    
   4 C4             1.2302    -2.0682    -0.0208 C.ar    
   5 C5             0.0396    -2.7731    -0.0138 C.ar    
   6 C6            -1.1696    -2.1008     0.0014 C.ar    
   7 C7            -1.1955    -0.7216     0.0154 C.ar    
   8 O8             1.0260     2.0953     0.0035 O.2     
   9 N9            -1.1942     2.1314     0.0193 N.am    
  10 C10           -1.2125     3.4790     0.0267 C.2     
  11 O11           -0.1682     4.1010     0.0251 O.2     
  12 N12           -2.3887     4.1370     0.0359 N.am    
  13 C13           -2.4086     5.6018     0.0439 C.3     
  14 C14           -3.8578     6.0921     0.0535 C.3     
  15 O15            0.8009    11.1351    -2.0809 O.3     
  16 C16            1.1838    12.5028    -2.3175 C.3     
  17 O17           -0.0176    13.1114    -2.8267 O.3     
  18 C18           -1.0471    12.3848    -2.3004 C.ar    
  19 C19           -0.5433    11.1693    -1.8429 C.ar    
  20 C20           -2.3951    12.6673    -2.1716 C.ar    
  21 C21           -3.2566    11.7431    -1.5882 C.ar    
  22 C22           -2.7431    10.5289    -1.1425 C.ar    
  23 C23           -1.3985    10.2468    -1.2639 C.ar    
  24 O24           -4.5973    11.8287    -1.3526 O.3     
  25 C25           -3.9067     9.7458    -0.5960 C.3     
  26 C26           -5.1265    10.5069    -1.1331 C.3     
  27 N27           -3.8777     7.5570     0.0615 N.am    
  28 C28           -3.8937     8.3155    -1.0527 C.2     
  29 C29           -3.9005     9.6850     0.9027 C.ar    
  30 C30           -3.9082    10.6410     1.8937 C.ar    
  31 C31           -3.9000    10.2604     3.2238 C.ar    
  32 C32           -3.8833     8.9177     3.5554 C.ar    
  33 C33           -3.8745     7.9564     2.5664 C.ar    
  34 C34           -3.8831     8.3304     1.2248 C.ar    
  35 O35           -3.8973     7.9201    -2.1993 O.2     
  36 H36            2.1487    -0.1397    -0.0195 H       
  37 H37            2.1706    -2.5991    -0.0327 H       
  38 H38            0.0543    -3.8530    -0.0205 H       
  39 H39           -2.0953    -2.6571     0.0068 H       
  40 H40           -2.1400    -0.1981     0.0317 H       
  41 H41           -2.0276     1.6350     0.0206 H       
  42 H42           -3.2221     3.6406     0.0371 H       
  43 H43           -1.8955     5.9672     0.9335 H       
  44 H44           -1.9039     5.9769    -0.8464 H       
  45 H45           -4.3709     5.7267    -0.8361 H       
  46 H46           -4.3625     5.7170     0.9438 H       
  47 H47            1.4908    12.9809    -1.3873 H       
  48 H48            1.9825    12.5543    -3.0575 H       
  49 H49           -2.7816    13.6114    -2.5262 H       
  50 H50           -1.0116     9.3039    -0.9068 H       
  51 H51           -5.9263    10.5282    -0.3928 H       
  52 H52           -5.4749    10.0691    -2.0685 H       
  53 H53           -3.9211    11.6889     1.6325 H       
  54 H54           -3.9070    11.0099     4.0013 H       
  55 H55           -3.8768     8.6206     4.5937 H       
  56 H56           -3.8609     6.9100     2.8332 H       
@<TRIPOS>BOND
   1    1    2 1
   2    1    8 2
   3    1    9 am
   4    2    3 ar
   5    2    7 ar
   6    3    4 ar
   7    3   36 1
   8    4    5 ar
   9    4   37 1
  10    5    6 ar
  11    5   38 1
  12    6    7 ar
  13    6   39 1
  14    7   40 1
  15    9   10 am
  16    9   41 1
  17   10   11 2
  18   10   12 am
  19   12   13 1
  20   12   42 1
  21   13   14 1
  22   13   43 1
  23   13   44 1
  24   14   27 1
  25   14   45 1
  26   14   46 1
  27   15   16 1
  28   15   19 1
  29   16   17 1
  30   16   47 1
  31   16   48 1
  32   17   18 1
  33   18   19 ar
  34   18   20 ar
  35   19   23 ar
  36   20   21 ar
  37   20   49 1
  38   21   22 ar
  39   21   24 1
  40   22   23 ar
  41   22   25 1
  42   23   50 1
  43   24   26 1
  44   25   26 1
  45   25   28 1
  46   25   29 1
  47   26   51 1
  48   26   52 1
  49   27   28 am
  50   27   34 1
  51   28   35 2
  52   29   30 ar
  53   29   34 ar
  54   30   31 ar
  55   30   53 1
  56   31   32 ar
  57   31   54 1
  58   32   33 ar
  59   32   55 1
  60   33   34 ar
  61   33   56 1

#	End of record

