#	Name: ASD01001166
#	Creating user name:	WinNT
#	Creation time:	15. 06. 2019 18:55

#	Modifying user name:	WinNT
#	Modification time:	15. 06. 2019 18:55

#	Program:	/corina/corina34_cracker 3.40 0067  02.08.2006

@<TRIPOS>MOLECULE
ASD01001166
  47   50    0    0    0
SMALL
NO_CHARGES


@<TRIPOS>ATOM
   1 C1            -0.0341     1.3709     0.0236 C.ar    
   2 C2            -0.0118    -0.0111     0.0040 C.ar    
   3 C3             1.1517     2.0811     0.0424 C.ar    
   4 C4             1.1963    -0.6830     0.0032 C.ar    
   5 C5             2.3598     1.4093     0.0415 C.ar    
   6 C6             2.3821     0.0273     0.0214 C.ar    
   7 C7             1.2206    -2.1896    -0.0172 C.3     
   8 C8             1.4888    -2.6855    -1.4410 C.3     
   9 N9             2.3096    -2.6823     0.8388 N.pl3   
  10 C10            0.4592    -2.1020    -2.4050 C.3     
  11 C11            1.4359    -4.2112    -1.4593 C.3     
  12 C12            2.7417    -4.0089     0.6921 C.ar    
  13 C13           -0.9283    -2.6584    -2.0719 C.3     
  14 C14            2.3482    -4.7713    -0.3963 C.ar    
  15 O15            0.1026    -4.6563    -1.1982 O.3     
  16 C16            3.5778    -4.5558     1.6592 C.ar    
  17 C17           -0.8729    -4.1881    -2.1299 C.3     
  18 C18            2.7944    -6.0756    -0.5190 C.ar    
  19 C19            4.0211    -5.8573     1.5366 C.ar    
  20 C20            3.6302    -6.6210     0.4449 C.ar    
  21 N21            4.0787    -7.9410     0.3171 N.pl3   
  22 C22            3.5652    -8.7879    -0.7624 C.3     
  23 C23            5.0616    -8.4755     1.2629 C.3     
  24 H24           -0.9780     1.8958     0.0198 H       
  25 H25           -0.9383    -0.5660    -0.0102 H       
  26 H26            1.1342     3.1609     0.0573 H       
  27 H27            3.2862     1.9642     0.0554 H       
  28 H28            3.3260    -0.4976     0.0211 H       
  29 H29            0.2661    -2.5794     0.3364 H       
  30 H30            2.4863    -2.3715    -1.7482 H       
  31 H31            2.7231    -2.0992     1.4945 H       
  32 H32            0.4474    -1.0162    -2.3100 H       
  33 H33            0.7237    -2.3739    -3.4269 H       
  34 H34            1.7529    -4.5735    -2.4372 H       
  35 H35           -1.2185    -2.3409    -1.0704 H       
  36 H36           -1.6532    -2.2912    -2.7984 H       
  37 H37            3.8814    -3.9609     2.5079 H       
  38 H38           -1.8494    -4.5982    -1.8721 H       
  39 H39           -0.5976    -4.5050    -3.1359 H       
  40 H40            2.4908    -6.6708    -1.3675 H       
  41 H41            4.6707    -6.2808     2.2883 H       
  42 H42            4.1996    -8.6798    -1.6421 H       
  43 H43            3.5663    -9.8289    -0.4394 H       
  44 H44            2.5475    -8.4850    -1.0090 H       
  45 H45            5.3941    -7.6800     1.9297 H       
  46 H46            4.6056    -9.2737     1.8485 H       
  47 H47            5.9165    -8.8705     0.7140 H       
@<TRIPOS>BOND
   1    1    2 ar
   2    1    3 ar
   3    1   24 1
   4    2    4 ar
   5    2   25 1
   6    3    5 ar
   7    3   26 1
   8    4    6 ar
   9    4    7 1
  10    5    6 ar
  11    5   27 1
  12    6   28 1
  13    7    8 1
  14    7    9 1
  15    7   29 1
  16    8   10 1
  17    8   11 1
  18    8   30 1
  19    9   12 1
  20    9   31 1
  21   10   13 1
  22   10   32 1
  23   10   33 1
  24   11   14 1
  25   11   15 1
  26   11   34 1
  27   12   14 ar
  28   12   16 ar
  29   13   17 1
  30   13   35 1
  31   13   36 1
  32   14   18 ar
  33   15   17 1
  34   16   19 ar
  35   16   37 1
  36   17   38 1
  37   17   39 1
  38   18   20 ar
  39   18   40 1
  40   19   20 ar
  41   19   41 1
  42   20   21 1
  43   21   22 1
  44   21   23 1
  45   22   42 1
  46   22   43 1
  47   22   44 1
  48   23   45 1
  49   23   46 1
  50   23   47 1

#	End of record

