#	Name: ASD07930534
#	Creating user name:	WinNT
#	Creation time:	15. 06. 2019 21:12

#	Modifying user name:	WinNT
#	Modification time:	15. 06. 2019 21:12

#	Program:	/corina/corina34_cracker 3.40 0067  02.08.2006

@<TRIPOS>MOLECULE
ASD07930534
  45   47    0    0    0
SMALL
NO_CHARGES


@<TRIPOS>ATOM
   1 C1            -0.0342     1.4581     0.0423 C.3     
   2 N2             0.7953    -0.4134    -2.1303 N.2     
   3 N3            -0.8903    -1.7835    -1.2685 N.pl3   
   4 C4            -0.9149    -2.8271    -0.2383 C.3     
   5 C5            -1.2299    -2.1885     1.1215 C.3     
   6 S6             0.0062    -0.8913     1.4433 S.o2    
   7 N7            -0.0140    -0.0067     0.0314 N.am    
   8 C8            -0.0112    -0.7260    -1.1553 C.2     
   9 C9             0.4501    -3.5154    -0.1756 C.3     
  10 C10           -1.9764    -3.8423    -0.5755 C.ar    
  11 C11           -2.8069    -3.6377    -1.6601 C.ar    
  12 C12           -3.7854    -4.5729    -1.9715 C.ar    
  13 C13           -3.9275    -5.7127    -1.1915 C.ar    
  14 C14           -3.0942    -5.9144    -0.1061 C.ar    
  15 C15           -2.1144    -4.9815     0.1987 C.ar    
  16 O16           -0.4575     0.0117     2.4377 O.2     
  17 O17            1.3141    -1.4441     1.5002 O.2     
  18 F18           -1.3007    -5.1795     1.2588 F       
  19 N19           -4.6275    -4.3664    -3.0698 N.am    
  20 C20           -5.0478    -5.4159    -3.8035 C.2     
  21 O21           -4.6193    -6.5296    -3.5722 O.2     
  22 C22           -6.0308    -5.2123    -4.8908 C.ar    
  23 C23           -6.4619    -6.3028    -5.6467 C.ar    
  24 F24           -3.2314    -7.0228     0.6540 F       
  25 N25           -6.4993    -3.9942    -5.1352 N.ar    
  26 C26           -7.3733    -3.7699    -6.0912 C.ar    
  27 C27           -7.8420    -4.8061    -6.8863 C.ar    
  28 C28           -7.3835    -6.0958    -6.6622 C.ar    
  29 Cl29          -8.9966    -4.4924    -8.1442 Cl      
  30 Cl30          -5.8531    -7.8956    -5.3213 Cl      
  31 H31            0.9884     1.8356     0.0392 H       
  32 H32           -0.5581     1.8208    -0.8420 H       
  33 H33           -0.5478     1.8077     0.9379 H       
  34 H34            1.4071     0.3330    -2.0333 H       
  35 H35           -1.4883    -1.8387    -2.0303 H       
  36 H36           -2.2269    -1.7484     1.0986 H       
  37 H37           -1.1799    -2.9460     1.9036 H       
  38 H38            1.2166    -2.7805     0.0704 H       
  39 H39            0.4311    -4.2908     0.5902 H       
  40 H40            0.6749    -3.9652    -1.1426 H       
  41 H41           -2.6955    -2.7505    -2.2657 H       
  42 H42           -4.6880    -6.4409    -1.4318 H       
  43 H43           -4.9088    -3.4678    -3.3031 H       
  44 H44           -7.7318    -2.7652    -6.2600 H       
  45 H45           -7.7331    -6.9193    -7.2673 H       
@<TRIPOS>BOND
   1    1    7 1
   2    1   31 1
   3    1   32 1
   4    1   33 1
   5    2    8 2
   6    2   34 1
   7    3    4 1
   8    3    8 1
   9    3   35 1
  10    4    5 1
  11    4    9 1
  12    4   10 1
  13    5    6 1
  14    5   36 1
  15    5   37 1
  16    6    7 am
  17    6   16 2
  18    6   17 2
  19    7    8 1
  20    9   38 1
  21    9   39 1
  22    9   40 1
  23   10   11 ar
  24   10   15 ar
  25   11   12 ar
  26   11   41 1
  27   12   13 ar
  28   12   19 1
  29   13   14 ar
  30   13   42 1
  31   14   15 ar
  32   14   24 1
  33   15   18 1
  34   19   20 am
  35   19   43 1
  36   20   21 2
  37   20   22 1
  38   22   23 ar
  39   22   25 ar
  40   23   30 1
  41   23   28 ar
  42   25   26 ar
  43   26   27 ar
  44   26   44 1
  45   27   28 ar
  46   27   29 1
  47   28   45 1

#	End of record

