#	Name: ASD00100155
#	Creating user name:	WinNT
#	Creation time:	15. 06. 2019 18:30

#	Modifying user name:	WinNT
#	Modification time:	15. 06. 2019 18:30

#	Program:	/corina/corina34_cracker 3.40 0067  02.08.2006

@<TRIPOS>MOLECULE
ASD00100155
  41   43    0    0    0
SMALL
NO_CHARGES


@<TRIPOS>ATOM
   1 C1             0.8658     0.1758    -0.1934 C.1     
   2 C2             0.6968     1.5966    -0.1349 C.ar    
   3 C3             1.8091     2.4272     0.0324 C.ar    
   4 C4             1.6461     3.7874     0.0883 C.ar    
   5 C5             0.3701     4.3431    -0.0212 C.ar    
   6 C6            -0.7412     3.5149    -0.1882 C.ar    
   7 C7            -0.5800     2.1547    -0.2507 C.ar    
   8 N8             0.9998    -0.9513    -0.2398 N.1     
   9 C9             0.6582     7.9296     0.2064 C.2     
  10 N10            1.1838     6.7292     0.1988 N.2     
  11 C11            0.1952     5.8127     0.0404 C.2     
  12 C12           -0.9823     6.4821    -0.0524 C.2     
  13 N13           -0.6899     7.8186     0.0524 N.pl3   
  14 C14           -1.6515     8.9230     0.0074 C.3     
  15 C15           -1.7470     9.4487    -1.4016 C.ar    
  16 C16           -2.5971     8.8399    -2.3138 C.ar    
  17 C17           -2.6831     9.3265    -3.6099 C.ar    
  18 C18           -1.9226    10.4158    -3.9895 C.ar    
  19 C19           -1.0765    11.0207    -3.0788 C.ar    
  20 C20           -0.9928    10.5407    -1.7846 C.ar    
  21 N21           -2.0136    10.9353    -5.3724 N.pl3   
  22 O22           -2.7586    10.4025    -6.1753 O.2     
  23 O23           -1.3434    11.8955    -5.7075 O.2     
  24 O24           -3.3437     7.7683    -1.9381 O.3     
  25 C25           -4.1965     7.1922    -2.9295 C.3     
  26 N26            1.3579     9.1149     0.3530 N.pl3   
  27 H27            2.7962     1.9974     0.1179 H       
  28 H28            2.5051     4.4291     0.2175 H       
  29 H29           -1.7278     3.9459    -0.2729 H       
  30 H30           -1.4393     1.5144    -0.3848 H       
  31 H31           -1.9616     6.0462    -0.1837 H       
  32 H32           -2.6299     8.5662     0.3292 H       
  33 H33           -1.3194     9.7212     0.6713 H       
  34 H34           -3.3437     8.8541    -4.3218 H       
  35 H35           -0.4829    11.8720    -3.3775 H       
  36 H36           -0.3341    11.0175    -1.0738 H       
  37 H37           -3.5951     6.8494    -3.7714 H       
  38 H38           -4.7345     6.3474    -2.4994 H       
  39 H39           -4.9105     7.9404    -3.2738 H       
  40 H40            2.3144     9.0968     0.5132 H       
  41 H41            0.8917     9.9635     0.2954 H       
@<TRIPOS>BOND
   1    1    2 1
   2    1    8 3
   3    2    3 ar
   4    2    7 ar
   5    3    4 ar
   6    3   27 1
   7    4    5 ar
   8    4   28 1
   9    5    6 ar
  10    5   11 1
  11    6    7 ar
  12    6   29 1
  13    7   30 1
  14    9   10 2
  15    9   13 1
  16    9   26 1
  17   10   11 1
  18   11   12 2
  19   12   13 1
  20   12   31 1
  21   13   14 1
  22   14   15 1
  23   14   32 1
  24   14   33 1
  25   15   16 ar
  26   15   20 ar
  27   16   17 ar
  28   16   24 1
  29   17   18 ar
  30   17   34 1
  31   18   19 ar
  32   18   21 1
  33   19   20 ar
  34   19   35 1
  35   20   36 1
  36   21   22 2
  37   21   23 2
  38   24   25 1
  39   25   37 1
  40   25   38 1
  41   25   39 1
  42   26   40 1
  43   26   41 1

#	End of record

