#	Name: ASD05790090
#	Creating user name:	WinNT
#	Creation time:	15. 06. 2019 21:03

#	Modifying user name:	WinNT
#	Modification time:	15. 06. 2019 21:03

#	Program:	/corina/corina34_cracker 3.40 0067  02.08.2006

@<TRIPOS>MOLECULE
ASD05790090
  92   98    0    0    0
SMALL
NO_CHARGES


@<TRIPOS>ATOM
   1 C1             2.2134    -0.2162    -0.1253 C.3     
   2 C2             2.5937    -1.6615    -0.3634 C.2     
   3 C3             3.4258    -1.9872    -1.5816 C.3     
   4 C4             4.6624    -1.0799    -1.6012 C.3     
   5 C5             4.2162     0.3881    -1.4960 C.3     
   6 C6             3.4914     0.6271    -0.1757 C.3     
   7 C7             5.4113    -1.3171    -2.9157 C.3     
   8 C8             4.5384    -0.9271    -4.1206 C.3     
   9 C9             4.1766     0.5383    -3.9647 C.3     
  10 C10            3.3197     0.6696    -2.6780 C.3     
  11 C11            3.2162     1.1005    -5.0204 C.3     
  12 C12            2.5318     2.2726    -4.3205 C.2     
  13 C13            2.7348     2.0671    -2.8144 C.3     
  14 C14            4.0185     1.5743    -6.2190 C.3     
  15 C15            3.1852     2.1179    -7.3302 C.3     
  16 C16            2.7111     3.5389    -7.1469 C.3     
  17 C17            1.5144     3.6317    -6.2178 C.3     
  18 C18            1.8581     3.2171    -4.8328 C.2     
  19 C19            2.2931     4.1058    -8.5378 C.3     
  20 C20            2.8345     5.5418    -8.4494 C.3     
  21 C21            4.1583     5.2566    -7.6858 C.3     
  22 O22            3.7891     4.3666    -6.6559 O.3     
  23 N23            3.2395     6.1368    -9.7191 N.am    
  24 C24            4.0095     7.3941    -9.6230 C.3     
  25 C25            5.2070     7.2372    -8.6889 C.3     
  26 C26            4.7993     6.5820    -7.3572 C.3     
  27 C27            5.4437     1.2981    -1.5729 C.3     
  28 C28            1.2670     4.1338    -3.7929 C.3     
  29 C29            5.8046     8.6169    -8.4055 C.3     
  30 C30            2.9675     3.3323    -9.6726 C.3     
  31 N31            2.2216    -2.5814     0.4443 N.2     
  32 O32            1.4424    -2.2535     1.5803 O.3     
  33 C33            4.3076     7.4881   -16.1406 C.ar    
  34 C34            5.5134     6.9018   -16.4768 C.ar    
  35 C35            5.9673     5.8020   -15.7730 C.ar    
  36 C36            5.2153     5.2886   -14.7329 C.ar    
  37 C37            4.0094     5.8748   -14.3966 C.ar    
  38 C38            3.5556     6.9746   -15.1005 C.ar    
  39 C39            3.1896     5.3150   -13.2628 C.3     
  40 O40            3.5736     5.9636   -12.0217 O.3     
  41 C41            2.9309     5.5745   -10.9045 C.2     
  42 O42            2.0726     4.7165   -10.9648 O.2     
  43 H43            1.5230     0.1153    -0.9010 H       
  44 H44            1.7443    -0.1155     0.8534 H       
  45 H45            3.7396    -3.0303    -1.5405 H       
  46 H46            2.8354    -1.8182    -2.4822 H       
  47 H47            5.3087    -1.3259    -0.7587 H       
  48 H48            3.2328     1.6825    -0.0901 H       
  49 H49            4.1434     0.3466     0.6515 H       
  50 H50            6.3214    -0.7174    -2.9231 H       
  51 H51            5.6770    -2.3715    -2.9917 H       
  52 H52            5.0964    -1.0744    -5.0453 H       
  53 H53            3.6324    -1.5330    -4.1332 H       
  54 H54            5.0778     1.1466    -3.8883 H       
  55 H55            2.5093    -0.0589    -2.7036 H       
  56 H56            2.4830     0.3477    -5.3098 H       
  57 H57            1.7802     2.1300    -2.2921 H       
  58 H58            3.4310     2.8083    -2.4221 H       
  59 H59            4.7084     2.3514    -5.8900 H       
  60 H60            4.6013     0.7357    -6.6002 H       
  61 H61            3.7668     2.0671    -8.2507 H       
  62 H62            2.3109     1.4777    -7.4473 H       
  63 H63            1.1561     4.6610    -6.2019 H       
  64 H64            0.7209     2.9867    -6.5951 H       
  65 H65            1.2092     4.1012    -8.6534 H       
  66 H66            2.1664     6.1930    -7.8857 H       
  67 H67            4.8273     4.7290    -8.3657 H       
  68 H68            4.3644     7.6726   -10.6152 H       
  69 H69            3.3603     8.1826    -9.2423 H       
  70 H70            5.9598     6.6171    -9.1755 H       
  71 H71            4.0863     7.2189    -6.8336 H       
  72 H72            5.6814     6.4235    -6.7367 H       
  73 H73            6.0293     1.0444    -2.4565 H       
  74 H74            5.1220     2.3376    -1.6365 H       
  75 H75            6.0543     1.1608    -0.6805 H       
  76 H76            0.7002     4.9240    -4.2852 H       
  77 H77            0.6050     3.5642    -3.1406 H       
  78 H78            2.0682     4.5760    -3.2008 H       
  79 H79            5.0521     9.2489    -7.9340 H       
  80 H80            6.6605     8.5121    -7.7387 H       
  81 H81            6.1270     9.0725    -9.3417 H       
  82 H82            3.3155     2.3692    -9.2992 H       
  83 H83            2.2517     3.1723   -10.4789 H       
  84 H84            3.8159     3.9043   -10.0482 H       
  85 H85            1.2099    -3.0139     2.1306 H       
  86 H86            3.9551     8.3500   -16.6876 H       
  87 H87            6.1007     7.3027   -17.2896 H       
  88 H88            6.9091     5.3435   -16.0361 H       
  89 H89            5.5696     4.4289   -14.1834 H       
  90 H90            2.6136     7.4329   -14.8376 H       
  91 H91            2.1321     5.4959   -13.4552 H       
  92 H92            3.3660     4.2424   -13.1819 H       
@<TRIPOS>BOND
   1    1    2 1
   2    1    6 1
   3    1   43 1
   4    1   44 1
   5    2    3 1
   6    2   31 2
   7    3    4 1
   8    3   45 1
   9    3   46 1
  10    4    5 1
  11    4    7 1
  12    4   47 1
  13    5    6 1
  14    5   27 1
  15    5   10 1
  16    6   48 1
  17    6   49 1
  18    7    8 1
  19    7   50 1
  20    7   51 1
  21    8    9 1
  22    8   52 1
  23    8   53 1
  24    9   10 1
  25    9   11 1
  26    9   54 1
  27   10   13 1
  28   10   55 1
  29   11   12 1
  30   11   14 1
  31   11   56 1
  32   12   13 1
  33   12   18 2
  34   13   57 1
  35   13   58 1
  36   14   15 1
  37   14   59 1
  38   14   60 1
  39   15   16 1
  40   15   61 1
  41   15   62 1
  42   16   17 1
  43   16   22 1
  44   16   19 1
  45   17   18 1
  46   17   63 1
  47   17   64 1
  48   18   28 1
  49   19   30 1
  50   19   20 1
  51   19   65 1
  52   20   21 1
  53   20   23 1
  54   20   66 1
  55   21   22 1
  56   21   26 1
  57   21   67 1
  58   23   24 1
  59   23   41 am
  60   24   25 1
  61   24   68 1
  62   24   69 1
  63   25   26 1
  64   25   29 1
  65   25   70 1
  66   26   71 1
  67   26   72 1
  68   27   73 1
  69   27   74 1
  70   27   75 1
  71   28   76 1
  72   28   77 1
  73   28   78 1
  74   29   79 1
  75   29   80 1
  76   29   81 1
  77   30   82 1
  78   30   83 1
  79   30   84 1
  80   31   32 1
  81   32   85 1
  82   33   34 ar
  83   33   38 ar
  84   33   86 1
  85   34   35 ar
  86   34   87 1
  87   35   36 ar
  88   35   88 1
  89   36   37 ar
  90   36   89 1
  91   37   38 ar
  92   37   39 1
  93   38   90 1
  94   39   40 1
  95   39   91 1
  96   39   92 1
  97   40   41 1
  98   41   42 2

#	End of record

