#	Name: ASD03080125
#	Creating user name:	WinNT
#	Creation time:	15. 06. 2019 20:26

#	Modifying user name:	WinNT
#	Modification time:	15. 06. 2019 20:26

#	Program:	/corina/corina34_cracker 3.40 0067  02.08.2006

@<TRIPOS>MOLECULE
ASD03080125
  25   27    0    0    0
SMALL
NO_CHARGES


@<TRIPOS>ATOM
   1 C1            -0.0167     1.3784     0.0096 C.ar    
   2 C2             0.0021    -0.0041     0.0020 C.ar    
   3 C3             1.2188    -0.6648    -0.0132 C.ar    
   4 C4             2.3880     0.0998    -0.0203 C.ar    
   5 C5             2.2847     1.4891    -0.0118 C.ar    
   6 N6             1.1044     2.0737     0.0027 N.ar    
   7 C7             3.7189    -0.5574    -0.0361 C.2     
   8 N8             3.9608    -1.8762    -0.0455 N.2     
   9 N9             5.2413    -2.0304    -0.0586 N.2     
  10 N10            5.8021    -0.8717    -0.0577 N.pl3   
  11 N11            4.8933     0.0420    -0.0494 N.2     
  12 C12            7.1849    -0.6399    -0.0697 C.ar    
  13 C13            8.0797    -1.7064    -0.0846 C.ar    
  14 C14            9.4367    -1.4270    -0.0965 C.ar    
  15 C15            9.8546    -0.1094    -0.0934 C.ar    
  16 N16            8.9809     0.8785    -0.0792 N.ar    
  17 C17            7.6819     0.6566    -0.0728 C.ar    
  18 H18           -0.9639     1.8972     0.0169 H       
  19 H19           -0.9223    -0.5625     0.0082 H       
  20 H20            1.2629    -1.7439    -0.0191 H       
  21 H21            3.1805     2.0923    -0.0168 H       
  22 H22            7.7248    -2.7264    -0.0863 H       
  23 H23           10.1595    -2.2293    -0.1078 H       
  24 H24           10.9112     0.1142    -0.1023 H       
  25 H25            6.9970     1.4916    -0.0612 H       
@<TRIPOS>BOND
   1    1    2 ar
   2    1    6 ar
   3    1   18 1
   4    2    3 ar
   5    2   19 1
   6    3    4 ar
   7    3   20 1
   8    4    5 ar
   9    4    7 1
  10    5    6 ar
  11    5   21 1
  12    7    8 1
  13    7   11 2
  14    8    9 2
  15    9   10 1
  16   10   11 1
  17   10   12 1
  18   12   13 ar
  19   12   17 ar
  20   13   14 ar
  21   13   22 1
  22   14   15 ar
  23   14   23 1
  24   15   16 ar
  25   15   24 1
  26   16   17 ar
  27   17   25 1

#	End of record

