#	Name: ASD05430287
#	Creating user name:	WinNT
#	Creation time:	15. 06. 2019 21:00

#	Modifying user name:	WinNT
#	Modification time:	15. 06. 2019 21:00

#	Program:	/corina/corina34_cracker 3.40 0067  02.08.2006

@<TRIPOS>MOLECULE
ASD05430287
  82   87    0    0    0
SMALL
NO_CHARGES


@<TRIPOS>ATOM
   1 C1            -1.0489     5.4173     1.2359 C.ar    
   2 C2            -1.5411     4.4220     2.0795 C.ar    
   3 C3            -0.6724     3.5060     2.6590 C.ar    
   4 C4             0.6796     3.5768     2.4035 C.ar    
   5 C5             1.1804     4.5724     1.5584 C.ar    
   6 C6             0.3061     5.4941     0.9747 C.ar    
   7 C7             2.6533     2.1735     1.0462 C.3     
   8 C8             3.3350     3.5228     1.0939 C.2     
   9 C9             2.6248     4.6500     1.2846 C.2     
  10 C10            3.5451     1.1765     0.3005 C.3     
  11 C11            4.5048     1.7773    -0.7332 C.3     
  12 N12            5.3533     2.7647    -0.0656 N.pl3   
  13 C13            4.7981     3.5693     0.9264 C.2     
  14 N14            5.5488     4.3105     1.6757 N.2     
  15 C15            6.9012     4.0940    -1.3823 C.ar    
  16 C16            8.1494     4.4492    -1.8586 C.ar    
  17 C17            5.7806     4.7917    -1.7927 C.ar    
  18 C18            5.9082     5.8445    -2.6794 C.ar    
  19 C19            7.1564     6.2000    -3.1553 C.ar    
  20 C20            8.2769     5.5021    -2.7452 C.ar    
  21 N21           -2.9153     4.3459     2.3435 N.pl3   
  22 C22           -3.7193     5.3669     2.7385 C.2     
  23 C23           -3.7032     3.2282     2.2462 C.2     
  24 C24           -4.9517     3.6002     2.5874 C.2     
  25 N25           -4.9330     4.9084     2.8826 N.2     
  26 C26           -6.1616     2.7026     2.6267 C.3     
  27 Si27           7.3286     7.6219    -4.3544 Si      
  28 C28            7.6927     9.1877    -3.4128 C.3     
  29 C29            8.7235     7.2705    -5.5382 C.3     
  30 C30            5.7412     7.8257    -5.3081 C.3     
  31 C31            6.7615     2.9423    -0.4206 C.3     
  32 C32            7.5481     3.2409     0.8602 C.3     
  33 O33            6.9522     4.3311     1.5556 O.3     
  34 C34            4.0251    -0.0539     1.0726 C.3     
  35 C35            2.9535    -0.2003    -0.0097 C.3     
  36 C36           -1.3295     7.3016    -0.1873 C.3     
  37 O37           -1.9026     6.3087     0.6659 O.3     
  38 C38            7.8337    10.3523    -4.3949 C.3     
  39 C39           10.0578     7.3581    -4.7945 C.3     
  40 C40            7.2955     1.6624    -1.0669 C.3     
  41 H41           -1.0578     2.7367     3.3117 H       
  42 H42            1.3528     2.8637     2.8560 H       
  43 H43            0.6886     6.2645     0.3216 H       
  44 H44            2.4808     1.8175     2.0619 H       
  45 H45            1.6994     2.2666     0.5270 H       
  46 H46            3.1145     5.6114     1.2367 H       
  47 H47            5.1258     0.9885    -1.1576 H       
  48 H48            3.9331     2.2618    -1.5248 H       
  49 H49            9.0249     3.9044    -1.5377 H       
  50 H50            4.8054     4.5139    -1.4209 H       
  51 H51            5.0326     6.3891    -3.0005 H       
  52 H52            9.2522     5.7800    -3.1168 H       
  53 H53           -3.4067     6.3870     2.9060 H       
  54 H54           -3.3840     2.2394     1.9518 H       
  55 H55           -6.2527     2.2589     3.6181 H       
  56 H56           -7.0549     3.2871     2.4068 H       
  57 H57           -6.0522     1.9126     1.8837 H       
  58 H58            6.8765     9.3933    -2.7202 H       
  59 H59            8.6214     9.0684    -2.8548 H       
  60 H60            8.6041     6.2699    -5.9537 H       
  61 H61            8.7086     8.0032    -6.3451 H       
  62 H62            4.9251     8.0313    -4.6155 H       
  63 H63            5.8417     8.6554    -6.0078 H       
  64 H64            5.5282     6.9096    -5.8590 H       
  65 H65            7.5452     2.3587     1.5004 H       
  66 H66            8.5762     3.4951     0.6023 H       
  67 H67            5.0224    -0.4318     0.8476 H       
  68 H68            3.7083    -0.1517     2.1109 H       
  69 H69            1.9318    -0.3942     0.3167 H       
  70 H70            3.2460    -0.6742    -0.9467 H       
  71 H71           -0.6166     7.9002     0.3797 H       
  72 H72           -0.8167     6.8153    -1.0172 H       
  73 H73           -2.1181     7.9464    -0.5751 H       
  74 H74            8.0468    11.2684    -3.8440 H       
  75 H75            8.6499    10.1467    -5.0875 H       
  76 H76            6.9050    10.4716    -4.9529 H       
  77 H77           10.8677     7.4769    -5.5142 H       
  78 H78           10.0424     8.2143    -4.1202 H       
  79 H79           10.2138     6.4454    -4.2194 H       
  80 H80            6.7209     1.4427    -1.9667 H       
  81 H81            8.3445     1.7986    -1.3299 H       
  82 H82            7.2016     0.8342    -0.3645 H       
@<TRIPOS>BOND
   1    1    2 ar
   2    1    6 ar
   3    1   37 1
   4    2    3 ar
   5    2   21 1
   6    3    4 ar
   7    3   41 1
   8    4    5 ar
   9    4   42 1
  10    5    6 ar
  11    5    9 1
  12    6   43 1
  13    7    8 1
  14    7   10 1
  15    7   44 1
  16    7   45 1
  17    8    9 2
  18    8   13 1
  19    9   46 1
  20   10   11 1
  21   10   34 1
  22   10   35 1
  23   11   12 1
  24   11   47 1
  25   11   48 1
  26   12   13 1
  27   12   31 1
  28   13   14 2
  29   14   33 1
  30   15   16 ar
  31   15   17 ar
  32   15   31 1
  33   16   20 ar
  34   16   49 1
  35   17   18 ar
  36   17   50 1
  37   18   19 ar
  38   18   51 1
  39   19   20 ar
  40   19   27 1
  41   20   52 1
  42   21   22 1
  43   21   23 1
  44   22   25 2
  45   22   53 1
  46   23   24 2
  47   23   54 1
  48   24   25 1
  49   24   26 1
  50   26   55 1
  51   26   56 1
  52   26   57 1
  53   27   28 1
  54   27   29 1
  55   27   30 1
  56   28   38 1
  57   28   58 1
  58   28   59 1
  59   29   39 1
  60   29   60 1
  61   29   61 1
  62   30   62 1
  63   30   63 1
  64   30   64 1
  65   31   32 1
  66   31   40 1
  67   32   33 1
  68   32   65 1
  69   32   66 1
  70   34   35 1
  71   34   67 1
  72   34   68 1
  73   35   69 1
  74   35   70 1
  75   36   37 1
  76   36   71 1
  77   36   72 1
  78   36   73 1
  79   38   74 1
  80   38   75 1
  81   38   76 1
  82   39   77 1
  83   39   78 1
  84   39   79 1
  85   40   80 1
  86   40   81 1
  87   40   82 1

#	End of record

