#	Name: ASD05490233
#	Creating user name:	WinNT
#	Creation time:	15. 06. 2019 21:01

#	Modifying user name:	WinNT
#	Modification time:	15. 06. 2019 21:01

#	Program:	/corina/corina34_cracker 3.40 0067  02.08.2006

@<TRIPOS>MOLECULE
ASD05490233
  67   70    0    0    0
SMALL
NO_CHARGES


@<TRIPOS>ATOM
   1 N1            -0.3680     0.7976     1.5235 N.ar    
   2 C2            -0.2192    -0.5089     1.3676 C.ar    
   3 C3             1.0348    -1.0679     1.1772 C.ar    
   4 C4             2.1476    -0.2327     1.1507 C.ar    
   5 C5             1.9536     1.1391     1.3147 C.ar    
   6 C6             0.6676     1.6278     1.5030 C.ar    
   7 N7             3.4248    -0.7486     0.9695 N.3     
   8 C8             3.3714    -2.0854     0.3629 C.3     
   9 C9             4.6870    -2.7879     0.5787 C.ar    
  10 C10            5.1714    -2.9693     1.8604 C.ar    
  11 C11            6.3784    -3.6138     2.0585 C.ar    
  12 C12            7.1005    -4.0771     0.9748 C.ar    
  13 C13            6.6155    -3.8964    -0.3073 C.ar    
  14 C14            5.4068    -3.2560    -0.5050 C.ar    
  15 N15            6.9984    -5.7798    -1.7941 N.3     
  16 C16            7.5673    -6.2252    -3.0794 C.3     
  17 C17            8.3828    -7.5050    -2.7995 C.3     
  18 C18            7.7650    -8.0308    -1.4771 C.3     
  19 C19            7.4441    -6.7097    -0.7347 C.3     
  20 N20            0.4633     2.9949     1.6706 N.pl3   
  21 O21           -1.3120    -1.3136     1.3950 O.3     
  22 C22           -2.5781    -0.6818     1.5949 C.3     
  23 C23           -3.6821    -1.7410     1.5962 C.3     
  24 N24            3.0626     2.0030     1.2829 N.am    
  25 C25            4.2749     0.1517     0.1836 C.3     
  26 C26            4.2182     1.5468     0.7496 C.2     
  27 O27            5.2023     2.2559     0.7266 O.2     
  28 C28            7.4030    -4.4011    -1.4889 C.3     
  29 C29            5.7189    -0.3526     0.2220 C.3     
  30 C30            3.7868     0.1726    -1.2663 C.3     
  31 C31           -5.0377    -1.0645     1.8102 C.3     
  32 C32           -6.1417    -2.1237     1.8115 C.3     
  33 H33            1.1465    -2.1348     1.0518 H       
  34 H34            2.5710    -2.6627     0.8256 H       
  35 H35            3.1806    -1.9919    -0.7062 H       
  36 H36            4.6072    -2.6074     2.7072 H       
  37 H37            6.7573    -3.7549     3.0599 H       
  38 H38            8.0437    -4.5799     1.1294 H       
  39 H39            5.0279    -3.1148    -1.5065 H       
  40 H40            6.7650    -6.4434    -3.7843 H       
  41 H41            8.2192    -5.4512    -3.4844 H       
  42 H42            8.2495    -8.2302    -3.6023 H       
  43 H43            9.4380    -7.2677    -2.6643 H       
  44 H44            6.8563    -8.6009    -1.6703 H       
  45 H45            8.4868    -8.6270    -0.9189 H       
  46 H46            8.3371    -6.3244    -0.2426 H       
  47 H47            6.6472    -6.8669    -0.0078 H       
  48 H48            1.2185     3.6035     1.6557 H       
  49 H49           -0.4341     3.3386     1.8023 H       
  50 H50           -2.5759    -0.1581     2.5509 H       
  51 H51           -2.7594     0.0311     0.7905 H       
  52 H52           -3.6843    -2.2647     0.6402 H       
  53 H53           -3.5008    -2.4539     2.4006 H       
  54 H54            2.9999     2.9047     1.6349 H       
  55 H55            7.2089    -3.7657    -2.3530 H       
  56 H56            8.4669    -4.3784    -1.2529 H       
  57 H57            5.8182    -1.2202    -0.4304 H       
  58 H58            6.3886     0.4369    -0.1189 H       
  59 H59            5.9785    -0.6339     1.2425 H       
  60 H60            2.7559     0.5251    -1.2976 H       
  61 H61            4.4174     0.8412    -1.8523 H       
  62 H62            3.8395    -0.8337    -1.6819 H       
  63 H63           -5.0355    -0.5408     2.7662 H       
  64 H64           -5.2190    -0.3516     1.0058 H       
  65 H65           -7.1074    -1.6418     1.9640 H       
  66 H66           -6.1439    -2.6474     0.8555 H       
  67 H67           -5.9604    -2.8366     2.6159 H       
@<TRIPOS>BOND
   1    1    2 ar
   2    1    6 ar
   3    2    3 ar
   4    2   21 1
   5    3    4 ar
   6    3   33 1
   7    4    5 ar
   8    4    7 1
   9    5    6 ar
  10    5   24 1
  11    6   20 1
  12    7    8 1
  13    7   25 1
  14    8    9 1
  15    8   34 1
  16    8   35 1
  17    9   10 ar
  18    9   14 ar
  19   10   11 ar
  20   10   36 1
  21   11   12 ar
  22   11   37 1
  23   12   13 ar
  24   12   38 1
  25   13   14 ar
  26   13   28 1
  27   14   39 1
  28   15   16 1
  29   15   19 1
  30   15   28 1
  31   16   17 1
  32   16   40 1
  33   16   41 1
  34   17   18 1
  35   17   42 1
  36   17   43 1
  37   18   19 1
  38   18   44 1
  39   18   45 1
  40   19   46 1
  41   19   47 1
  42   20   48 1
  43   20   49 1
  44   21   22 1
  45   22   23 1
  46   22   50 1
  47   22   51 1
  48   23   31 1
  49   23   52 1
  50   23   53 1
  51   24   26 am
  52   24   54 1
  53   25   26 1
  54   25   29 1
  55   25   30 1
  56   26   27 2
  57   28   55 1
  58   28   56 1
  59   29   57 1
  60   29   58 1
  61   29   59 1
  62   30   60 1
  63   30   61 1
  64   30   62 1
  65   31   32 1
  66   31   63 1
  67   31   64 1
  68   32   65 1
  69   32   66 1
  70   32   67 1

#	End of record

