#	Name: ASD01028550
#	Creating user name:	WinNT
#	Creation time:	15. 06. 2019 18:57

#	Modifying user name:	WinNT
#	Modification time:	15. 06. 2019 18:57

#	Program:	/corina/corina34_cracker 3.40 0067  02.08.2006

@<TRIPOS>MOLECULE
ASD01028550
  50   54    0    0    0
SMALL
NO_CHARGES


@<TRIPOS>ATOM
   1 N1            -0.0169     1.3922     0.0097 N.2     
   2 N2             0.0021    -0.0041     0.0020 N.pl3   
   3 C3             1.1101     2.0751     0.0026 C.2     
   4 C4             2.3573     1.4096    -0.0133 C.2     
   5 C5             2.4044     0.0526    -0.0211 C.2     
   6 C6             1.1994    -0.6772    -0.0130 C.2     
   7 N7             0.9127    -1.9690    -0.0175 N.2     
   8 N8            -0.3657    -2.1204    -0.0059 N.2     
   9 C9            -0.9593    -0.9525     0.0061 C.2     
  10 C10           -2.4468    -0.7111     0.0226 C.3     
  11 C11            1.0698     3.5504     0.0109 C.2     
  12 N12           -2.9147    -0.6403     1.4090 N.pl3   
  13 C13           -4.2584    -0.4232     1.6775 C.ar    
  14 C14           -5.1753    -0.2704     0.6507 C.ar    
  15 C15           -6.5142    -0.0541     0.9484 C.ar    
  16 N16           -6.9442     0.0116     2.1871 N.ar    
  17 C17           -6.1141    -0.1272     3.2261 C.ar    
  18 C18           -4.7349    -0.3568     3.0101 C.ar    
  19 C19           -6.5893    -0.0550     4.5488 C.ar    
  20 C20           -5.6886    -0.2055     5.5701 C.ar    
  21 C21           -4.3376    -0.4242     5.2805 C.ar    
  22 N22           -3.9056    -0.4967     4.0453 N.ar    
  23 C23           -0.0428     4.3140     0.0256 C.2     
  24 N24            0.1891     5.6087     0.0311 N.2     
  25 C25            1.4321     5.9866     0.0219 C.2     
  26 S26            2.4658     4.6252     0.0111 S.3     
  27 N27            1.8581     7.3023     0.0251 N.pl3   
  28 C28            0.8767     8.3900     0.0403 C.3     
  29 C29            3.2907     7.6085     0.0133 C.3     
  30 O30           -6.1064    -0.1421     6.8613 O.3     
  31 C31           -5.1118    -0.3079     7.8739 C.3     
  32 H32            3.2737     1.9812    -0.0197 H       
  33 H33            3.3543    -0.4611    -0.0336 H       
  34 H34           -2.6680     0.2284    -0.4839 H       
  35 H35           -2.9533    -1.5285    -0.4906 H       
  36 H36           -2.2850    -0.7453     2.1394 H       
  37 H37           -4.8500    -0.3190    -0.3780 H       
  38 H38           -7.2203     0.0637     0.1398 H       
  39 H39           -7.6361     0.1148     4.7533 H       
  40 H40           -3.6358    -0.5415     6.0929 H       
  41 H41           -1.0392     3.8974     0.0318 H       
  42 H42            0.6430     8.6541     1.0717 H       
  43 H43            1.2892     9.2588    -0.4727 H       
  44 H44           -0.0323     8.0663    -0.4668 H       
  45 H45            3.8607     6.6794     0.0028 H       
  46 H46            3.5303     8.1917    -0.8758 H       
  47 H47            3.5470     8.1820     0.9040 H       
  48 H48           -4.6425    -1.2857     7.7656 H       
  49 H49           -4.3562     0.4711     7.7720 H       
  50 H50           -5.5781    -0.2355     8.8565 H       
@<TRIPOS>BOND
   1    1    2 1
   2    1    3 2
   3    2    6 1
   4    2    9 1
   5    3    4 1
   6    3   11 1
   7    4    5 2
   8    4   32 1
   9    5    6 1
  10    5   33 1
  11    6    7 2
  12    7    8 1
  13    8    9 2
  14    9   10 1
  15   10   12 1
  16   10   34 1
  17   10   35 1
  18   11   23 2
  19   11   26 1
  20   12   13 1
  21   12   36 1
  22   13   14 ar
  23   13   18 ar
  24   14   15 ar
  25   14   37 1
  26   15   16 ar
  27   15   38 1
  28   16   17 ar
  29   17   18 ar
  30   17   19 ar
  31   18   22 ar
  32   19   20 ar
  33   19   39 1
  34   20   21 ar
  35   20   30 1
  36   21   22 ar
  37   21   40 1
  38   23   24 1
  39   23   41 1
  40   24   25 2
  41   25   26 1
  42   25   27 1
  43   27   28 1
  44   27   29 1
  45   28   42 1
  46   28   43 1
  47   28   44 1
  48   29   45 1
  49   29   46 1
  50   29   47 1
  51   30   31 1
  52   31   48 1
  53   31   49 1
  54   31   50 1

#	End of record

