#	Name: ASD02230002
#	Creating user name:	WinNT
#	Creation time:	15. 06. 2019 20:20

#	Modifying user name:	WinNT
#	Modification time:	15. 06. 2019 20:20

#	Program:	/corina/corina34_cracker 3.40 0067  02.08.2006

@<TRIPOS>MOLECULE
ASD02230002
  56   60    0    0    0
SMALL
NO_CHARGES


@<TRIPOS>ATOM
   1 C1            -0.0166     1.3749     0.0096 C.ar    
   2 C2             0.0021    -0.0041     0.0020 C.ar    
   3 C3             1.1703     2.0864     0.0021 C.ar    
   4 C4             2.3837     1.4210    -0.0136 C.ar    
   5 C5             2.4178     0.0424    -0.0214 C.ar    
   6 C6             1.2234    -0.6827    -0.0133 C.ar    
   7 C7             1.2517    -2.1579    -0.0211 C.2     
   8 C8             0.1468    -2.9841    -0.0145 C.2     
   9 O9             2.3578    -2.9206    -0.0417 O.3     
  10 C10            2.0037    -4.2240    -0.0432 C.2     
  11 C11            0.6172    -4.2956    -0.0262 C.2     
  12 S12            1.1366     3.8481     0.0119 S.o2    
  13 O13            2.3731     4.2762    -0.5421 O.2     
  14 O14           -0.1257     4.2282    -0.5184 O.2     
  15 N15            1.1423     4.3296     1.5964 N.am    
  16 C16            2.2431     4.0668     2.3966 C.2     
  17 S17            2.3840     4.5050     4.0431 S.3     
  18 C18            3.9900     3.7841     4.1090 C.2     
  19 C19            4.2703     3.2865     2.9042 C.2     
  20 N20            3.3140     3.4476     2.0070 N.2     
  21 C21            2.8842    -5.3161    -0.0629 C.2     
  22 C22            4.2570    -5.1016    -0.0826 C.2     
  23 C23            4.9602    -3.8086    -0.0859 C.2     
  24 N24            6.2788    -4.0798    -0.1075 N.am    
  25 N25            6.4943    -5.4580    -0.1187 N.am    
  26 C26            5.3213    -6.1189    -0.0981 C.2     
  27 O27            4.4474    -2.7048    -0.0724 O.2     
  28 O28            5.1697    -7.3264    -0.1010 O.2     
  29 C29            7.2909    -3.1149    -0.1181 C.ar    
  30 C30            6.9654    -1.7649    -0.1062 C.ar    
  31 C31            8.6242    -3.5046    -0.1348 C.ar    
  32 C32            9.6211    -2.5493    -0.1447 C.ar    
  33 C33            9.2935    -1.2056    -0.1377 C.ar    
  34 C34            7.9675    -0.8143    -0.1163 C.ar    
  35 C35           11.0678    -2.9712    -0.1628 C.3     
  36 C36           10.3842    -0.1657    -0.1476 C.3     
  37 H37           -0.9599     1.9008     0.0169 H       
  38 H38           -0.9250    -0.5581     0.0083 H       
  39 H39            3.3061     1.9828    -0.0201 H       
  40 H40            3.3654    -0.4756    -0.0339 H       
  41 H41           -0.8874    -2.6731    -0.0024 H       
  42 H42            0.0187    -5.1945    -0.0231 H       
  43 H43            0.3754     4.7956     1.9644 H       
  44 H44            4.6352     3.7509     4.9745 H       
  45 H45            5.2022     2.7883     2.6809 H       
  46 H46            2.4950    -6.3236    -0.0627 H       
  47 H47            7.3670    -5.8810    -0.1344 H       
  48 H48            5.9299    -1.4586    -0.0895 H       
  49 H49            8.8807    -4.5537    -0.1396 H       
  50 H50            7.7150     0.2358    -0.1108 H       
  51 H51           11.4043    -3.0708    -1.1947 H       
  52 H52           11.6718    -2.2195     0.3454 H       
  53 H53           11.1735    -3.9283     0.3479 H       
  54 H54           10.6354     0.0875    -1.1776 H       
  55 H55           10.0390     0.7279     0.3724 H       
  56 H56           11.2671    -0.5604     0.3552 H       
@<TRIPOS>BOND
   1    1    2 ar
   2    1    3 ar
   3    1   37 1
   4    2    6 ar
   5    2   38 1
   6    3    4 ar
   7    3   12 1
   8    4    5 ar
   9    4   39 1
  10    5    6 ar
  11    5   40 1
  12    6    7 1
  13    7    8 2
  14    7    9 1
  15    8   11 1
  16    8   41 1
  17    9   10 1
  18   10   11 2
  19   10   21 1
  20   11   42 1
  21   12   13 2
  22   12   14 2
  23   12   15 am
  24   15   16 1
  25   15   43 1
  26   16   17 1
  27   16   20 2
  28   17   18 1
  29   18   19 2
  30   18   44 1
  31   19   20 1
  32   19   45 1
  33   21   22 2
  34   21   46 1
  35   22   23 1
  36   22   26 1
  37   23   24 am
  38   23   27 2
  39   24   25 1
  40   24   29 1
  41   25   26 am
  42   25   47 1
  43   26   28 2
  44   29   30 ar
  45   29   31 ar
  46   30   34 ar
  47   30   48 1
  48   31   32 ar
  49   31   49 1
  50   32   33 ar
  51   32   35 1
  52   33   34 ar
  53   33   36 1
  54   34   50 1
  55   35   51 1
  56   35   52 1
  57   35   53 1
  58   36   54 1
  59   36   55 1
  60   36   56 1

#	End of record

