#	Name: ASD08150083
#	Creating user name:	WinNT
#	Creation time:	15. 06. 2019 21:15

#	Modifying user name:	WinNT
#	Modification time:	15. 06. 2019 21:15

#	Program:	/corina/corina34_cracker 3.40 0067  02.08.2006

@<TRIPOS>MOLECULE
ASD08150083
  27   27    0    0    0
SMALL
NO_CHARGES


@<TRIPOS>ATOM
   1 O1            -0.0161     1.3335     0.0094 O.3     
   2 C2             0.0021    -0.0041     0.0020 C.2     
   3 N3             1.2348    -0.5293    -0.0126 N.am    
   4 C4             2.2183     0.5645    -0.0161 C.3     
   5 C5             1.3508     1.8380    -0.0010 C.3     
   6 O6            -1.0070    -0.6809     0.0087 O.2     
   7 C7             3.0750     0.5129    -1.2827 C.3     
   8 C8             1.6043     2.6745    -1.2567 C.3     
   9 C9             0.7515     3.9438    -1.2046 C.3     
  10 C10            1.1252     4.7588     0.0352 C.3     
  11 C11            1.0050     4.7804    -2.4603 C.3     
  12 O12           -0.6307     3.5867    -1.1411 O.3     
  13 H13            1.4444    -1.4764    -0.0197 H       
  14 H14            2.8457     0.5181     0.8740 H       
  15 H15            1.5485     2.4243     0.8964 H       
  16 H16            2.4317     0.5849    -2.1596 H       
  17 H17            3.7791     1.3449    -1.2792 H       
  18 H18            3.6246    -0.4280    -1.3114 H       
  19 H19            2.6586     2.9469    -1.3051 H       
  20 H20            1.3381     2.0939    -2.1399 H       
  21 H21            2.1795     5.0311    -0.0132 H       
  22 H22            0.5177     5.6630     0.0723 H       
  23 H23            0.9446     4.1628     0.9298 H       
  24 H24            0.7388     4.1998    -3.3435 H       
  25 H25            0.3975     5.6846    -2.4232 H       
  26 H26            2.0593     5.0527    -2.5087 H       
  27 H27           -0.9379     3.0674    -1.8968 H       
@<TRIPOS>BOND
   1    1    2 1
   2    1    5 1
   3    2    3 am
   4    2    6 2
   5    3    4 1
   6    3   13 1
   7    4    5 1
   8    4    7 1
   9    4   14 1
  10    5    8 1
  11    5   15 1
  12    7   16 1
  13    7   17 1
  14    7   18 1
  15    8    9 1
  16    8   19 1
  17    8   20 1
  18    9   10 1
  19    9   11 1
  20    9   12 1
  21   10   21 1
  22   10   22 1
  23   10   23 1
  24   11   24 1
  25   11   25 1
  26   11   26 1
  27   12   27 1

#	End of record

