#	Name: ASD03080087
#	Creating user name:	WinNT
#	Creation time:	15. 06. 2019 20:26

#	Modifying user name:	WinNT
#	Modification time:	15. 06. 2019 20:26

#	Program:	/corina/corina34_cracker 3.40 0067  02.08.2006

@<TRIPOS>MOLECULE
ASD03080087
  26   28    0    0    0
SMALL
NO_CHARGES


@<TRIPOS>ATOM
   1 C1            -0.0167     1.3793     0.0096 C.ar    
   2 C2             0.0021    -0.0041     0.0020 C.ar    
   3 C3             1.2043    -0.6806    -0.0126 C.ar    
   4 C4             2.4034     0.0337    -0.0202 C.ar    
   5 C5             2.3774     1.4291    -0.0129 C.ar    
   6 C6             1.1683     2.0934     0.0021 C.ar    
   7 C7             3.6954    -0.6847    -0.0354 C.2     
   8 O8             3.8702    -2.0153    -0.0437 O.3     
   9 N9             5.0545    -2.2762    -0.0564 N.2     
  10 C10            5.7625    -1.1760    -0.0576 C.2     
  11 N11            4.8975    -0.1403    -0.0492 N.2     
  12 C12            7.2440    -1.0839    -0.0713 C.ar    
  13 C13            8.0270    -2.2409    -0.0851 C.ar    
  14 C14            9.4046    -2.1016    -0.0976 C.ar    
  15 C15            9.9560    -0.8336    -0.0959 C.ar    
  16 N16            9.1906     0.2407    -0.0827 N.ar    
  17 C17            7.8760     0.1576    -0.0764 C.ar    
  18 H18           -0.9606     1.9042     0.0169 H       
  19 H19           -0.9265    -0.5556     0.0079 H       
  20 H20            1.2177    -1.7605    -0.0178 H       
  21 H21            3.3017     1.9876    -0.0184 H       
  22 H22            1.1468     3.1732     0.0074 H       
  23 H23            7.5694    -3.2192    -0.0858 H       
  24 H24           10.0414    -2.9738    -0.1081 H       
  25 H25           11.0301    -0.7210    -0.1052 H       
  26 H26            7.2828     1.0600    -0.0656 H       
@<TRIPOS>BOND
   1    1    2 ar
   2    1    6 ar
   3    1   18 1
   4    2    3 ar
   5    2   19 1
   6    3    4 ar
   7    3   20 1
   8    4    5 ar
   9    4    7 1
  10    5    6 ar
  11    5   21 1
  12    6   22 1
  13    7    8 1
  14    7   11 2
  15    8    9 1
  16    9   10 2
  17   10   11 1
  18   10   12 1
  19   12   13 ar
  20   12   17 ar
  21   13   14 ar
  22   13   23 1
  23   14   15 ar
  24   14   24 1
  25   15   16 ar
  26   15   25 1
  27   16   17 ar
  28   17   26 1

#	End of record

