#	Name: ASD02198663
#	Creating user name:	WinNT
#	Creation time:	15. 06. 2019 20:19

#	Modifying user name:	WinNT
#	Modification time:	15. 06. 2019 20:19

#	Program:	/corina/corina34_cracker 3.40 0067  02.08.2006

@<TRIPOS>MOLECULE
ASD02198663
  44   46    0    0    0
SMALL
NO_CHARGES


@<TRIPOS>ATOM
   1 C1            -0.0163     1.3545     0.0095 C.2     
   2 C2             0.0021    -0.0041     0.0020 C.2     
   3 N3            -1.1538    -0.7134     0.0093 N.pl3   
   4 N4            -2.3139    -0.1688     0.0233 N.2     
   5 C5            -2.4754     1.1403     0.0323 C.2     
   6 C6            -1.2845     2.0004     0.0311 C.2     
   7 C7            -1.0759    -2.1101     0.0005 C.ar    
   8 C8            -1.6592    -4.2190    -0.9913 C.ar    
   9 C9            -0.9208    -4.8777    -0.0141 C.ar    
  10 C10           -0.2661    -4.1492     0.9712 C.ar    
  11 C11           -0.3433    -2.7713     0.9786 C.ar    
  12 C12           -3.8270     1.7298     0.0484 C.2     
  13 O13           -1.3786     3.2183     0.0391 O.2     
  14 C14           -1.7369    -2.8379    -0.9844 C.ar    
  15 O15            1.1379     2.0728     0.0023 O.3     
  16 C16            2.3614     1.3346    -0.0133 C.3     
  17 O17           -4.9111     0.9294     0.0540 O.3     
  18 O18           -3.9631     2.9371     0.0566 O.2     
  19 F19           -2.4541    -2.1962    -1.9326 F       
  20 N20           -0.8377    -6.2734    -0.0230 N.3     
  21 C21            0.5576    -6.7172    -0.1557 C.3     
  22 C22            0.6084    -8.2464    -0.1010 C.3     
  23 O23           -0.2305    -8.7833    -1.1273 O.3     
  24 C24           -1.5966    -8.3719    -1.0281 C.3     
  25 C25           -1.6698    -6.8440    -1.0922 C.3     
  26 C26           -6.2098     1.5787     0.0700 C.3     
  27 F27           -2.2960    -4.9272    -1.9496 F       
  28 H28            0.9480    -0.5250    -0.0102 H       
  29 H29            0.3068    -4.6614     1.7300 H       
  30 H30            0.1665    -2.2064     1.7451 H       
  31 H31            2.3985     0.7117    -0.9071 H       
  32 H32            3.2033     2.0268    -0.0176 H       
  33 H33            2.4155     0.7022     0.8728 H       
  34 H34            0.9597    -6.3735    -1.1088 H       
  35 H35            1.1502    -6.3039     0.6604 H       
  36 H36            1.6337    -8.5822    -0.2562 H       
  37 H37            0.2564    -8.5876     0.8725 H       
  38 H38           -2.1661    -8.7985    -1.8538 H       
  39 H39           -2.0128    -8.7168    -0.0815 H       
  40 H40           -2.7031    -6.5232    -0.9597 H       
  41 H41           -1.3033    -6.5023    -2.0602 H       
  42 H42           -6.9943     0.8220     0.0731 H       
  43 H43           -6.2966     2.1956     0.9644 H       
  44 H44           -6.3134     2.2058    -0.8155 H       
@<TRIPOS>BOND
   1    1    2 2
   2    1   15 1
   3    1    6 1
   4    2    3 1
   5    2   28 1
   6    3    4 1
   7    3    7 1
   8    4    5 2
   9    5    6 1
  10    5   12 1
  11    6   13 2
  12    7   14 ar
  13    7   11 ar
  14    8    9 ar
  15    8   27 1
  16    8   14 ar
  17    9   10 ar
  18    9   20 1
  19   10   11 ar
  20   10   29 1
  21   11   30 1
  22   12   17 1
  23   12   18 2
  24   14   19 1
  25   15   16 1
  26   16   31 1
  27   16   32 1
  28   16   33 1
  29   17   26 1
  30   20   21 1
  31   20   25 1
  32   21   22 1
  33   21   34 1
  34   21   35 1
  35   22   23 1
  36   22   36 1
  37   22   37 1
  38   23   24 1
  39   24   25 1
  40   24   38 1
  41   24   39 1
  42   25   40 1
  43   25   41 1
  44   26   42 1
  45   26   43 1
  46   26   44 1

#	End of record

