#	Name: ASD01028252
#	Creating user name:	WinNT
#	Creation time:	15. 06. 2019 18:56

#	Modifying user name:	WinNT
#	Modification time:	15. 06. 2019 18:56

#	Program:	/corina/corina34_cracker 3.40 0067  02.08.2006

@<TRIPOS>MOLECULE
ASD01028252
  48   52    0    0    0
SMALL
NO_CHARGES


@<TRIPOS>ATOM
   1 C1            -0.0181     1.3939    -0.0035 C.ar    
   2 N2             0.0021    -0.0041     0.0020 N.pl3   
   3 C3             1.0190     2.1073     0.5838 C.ar    
   4 N4            -1.1575    -2.0331     0.0049 N.ar    
   5 C5            -1.1824    -0.7134     0.1141 C.ar    
   6 C6            -2.2771    -2.7421     0.1077 C.ar    
   7 C7            -3.4832    -2.0752     0.3330 C.ar    
   8 C8            -3.4645    -0.6982     0.4411 C.ar    
   9 N9            -2.3120    -0.0548     0.3283 N.ar    
  10 N10           -2.2481    -4.1224    -0.0074 N.pl3   
  11 C11           -3.4885    -4.8933     0.1077 C.3     
  12 C12           -3.1849    -6.3605    -0.0536 C.2     
  13 N13           -2.8706    -7.2233     0.9374 N.pl3   
  14 C14           -2.6778    -8.4424     0.3318 C.2     
  15 N15           -2.8796    -8.2627    -0.9633 N.2     
  16 N16           -3.1836    -7.0304    -1.1790 N.2     
  17 N17           -2.7246    -7.0977     2.3203 N.2     
  18 C18           -2.4026    -8.1399     3.0541 C.2     
  19 C19           -2.1976    -9.4043     2.4621 C.2     
  20 C20           -2.3334    -9.5579     1.1185 C.2     
  21 C21           -2.2525    -7.9848     4.5219 C.ar    
  22 C22           -1.0725     2.0725    -0.6012 C.ar    
  23 C23           -1.0891     3.4534    -0.6053 C.ar    
  24 C24           -2.4519    -6.7409     5.1177 C.ar    
  25 C25           -2.3114    -6.6024     6.4837 C.ar    
  26 C26           -1.9732    -7.6955     7.2611 C.ar    
  27 C27           -1.7741    -8.9325     6.6750 C.ar    
  28 C28           -1.9171    -9.0836     5.3106 C.ar    
  29 C29           -0.0574     4.1606    -0.0155 C.ar    
  30 C30            0.9962     3.4882     0.5762 C.ar    
  31 H31            0.8455    -0.4772    -0.0727 H       
  32 H32            1.8421     1.5828     1.0460 H       
  33 H33           -4.4095    -2.6235     0.4208 H       
  34 H34           -4.3797    -0.1520     0.6156 H       
  35 H35           -1.4064    -4.5784    -0.1642 H       
  36 H36           -3.9344    -4.7200     1.0872 H       
  37 H37           -4.1852    -4.5788    -0.6694 H       
  38 H38           -1.9328   -10.2513     3.0776 H       
  39 H39           -2.1777   -10.5233     0.6600 H       
  40 H40           -1.8782     1.5207    -1.0625 H       
  41 H41           -1.9086     3.9816    -1.0698 H       
  42 H42           -2.7157    -5.8868     4.5117 H       
  43 H43           -2.4654    -5.6388     6.9465 H       
  44 H44           -1.8640    -7.5825     8.3296 H       
  45 H45           -1.5098    -9.7824     7.2867 H       
  46 H46           -1.7614   -10.0499     4.8541 H       
  47 H47           -0.0725     5.2405    -0.0207 H       
  48 H48            1.8004     4.0434     1.0359 H       
@<TRIPOS>BOND
   1    1    2 1
   2    1    3 ar
   3    1   22 ar
   4    2    5 1
   5    2   31 1
   6    3   30 ar
   7    3   32 1
   8    4    5 ar
   9    4    6 ar
  10    5    9 ar
  11    6    7 ar
  12    6   10 1
  13    7    8 ar
  14    7   33 1
  15    8    9 ar
  16    8   34 1
  17   10   11 1
  18   10   35 1
  19   11   12 1
  20   11   36 1
  21   11   37 1
  22   12   13 1
  23   12   16 2
  24   13   14 1
  25   13   17 1
  26   14   15 2
  27   14   20 1
  28   15   16 1
  29   17   18 2
  30   18   19 1
  31   18   21 1
  32   19   20 2
  33   19   38 1
  34   20   39 1
  35   21   24 ar
  36   21   28 ar
  37   22   23 ar
  38   22   40 1
  39   23   29 ar
  40   23   41 1
  41   24   25 ar
  42   24   42 1
  43   25   26 ar
  44   25   43 1
  45   26   27 ar
  46   26   44 1
  47   27   28 ar
  48   27   45 1
  49   28   46 1
  50   29   30 ar
  51   29   47 1
  52   30   48 1

#	End of record

