#	Name: ASD01230132
#	Creating user name:	WinNT
#	Creation time:	15. 06. 2019 19:11

#	Modifying user name:	WinNT
#	Modification time:	15. 06. 2019 19:11

#	Program:	/corina/corina34_cracker 3.40 0067  02.08.2006

@<TRIPOS>MOLECULE
ASD01230132
  64   67    0    0    0
SMALL
NO_CHARGES


@<TRIPOS>ATOM
   1 P1             0.6047     1.9161    -0.4005 P.3     
   2 O2             0.7767     0.4462    -0.3850 O.2     
   3 O3             2.0373     2.6220    -0.6038 O.3     
   4 O4            -0.3737     2.3293    -1.6105 O.3     
   5 N5            -0.0658     2.4178     1.0594 N.3     
   6 O6            -2.3698     4.4507     1.8249 O.3     
   7 C7            -1.6725     4.2320     0.6950 C.2     
   8 C8            -0.2514     3.8749     1.0803 C.3     
   9 C9            -0.0886     4.4180     2.5172 C.3     
  10 C10           -1.4714     5.0363     2.8148 C.3     
  11 O11           -2.1046     4.3067    -0.4309 O.2     
  12 C12           -1.4198     6.5567     2.6519 C.3     
  13 C13           -1.9254     4.6672     4.2285 C.3     
  14 C14            3.0261     2.0979     0.1673 C.ar    
  15 C15            3.7946     1.0456    -0.3088 C.ar    
  16 C16            4.7991     0.5146     0.4769 C.ar    
  17 C17            5.0389     1.0310     1.7369 C.ar    
  18 C18            4.2741     2.0795     2.2139 C.ar    
  19 C19            3.2725     2.6181     1.4296 C.ar    
  20 C20           -1.6415     1.7086    -1.8329 C.3     
  21 O21           -1.5592     2.0221    -4.2537 O.3     
  22 C22           -2.3081     2.3354    -3.0592 C.3     
  23 C23           -3.7017     1.7108    -3.2918 C.3     
  24 C24           -3.8225     1.6247    -4.8298 C.3     
  25 C25           -2.4876     2.2075    -5.3444 C.3     
  26 C26           -3.9789     0.1692    -5.2746 C.3     
  27 O27           -4.7238     2.5533    -2.7557 O.3     
  28 F28           -4.9017     2.3924    -5.2805 F       
  29 C29           -2.4889     1.8256    -7.7470 C.2     
  30 N30           -2.0933     1.1775    -8.8412 N.2     
  31 C31           -1.2385     0.1665    -8.7578 C.2     
  32 C32           -0.7437    -0.2256    -7.4970 C.2     
  33 C33           -1.1553     0.4433    -6.3939 C.2     
  34 N34           -2.0347     1.4753    -6.5297 N.am    
  35 O35           -3.2718     2.7553    -7.8504 O.2     
  36 N36           -0.8374    -0.4958    -9.8948 N.pl3   
  37 H37           -0.9356     1.9399     1.2411 H       
  38 H38            0.4575     4.3572     0.4073 H       
  39 H39            0.1290     3.6077     3.2130 H       
  40 H40            0.6903     5.1796     2.5553 H       
  41 H41           -2.4138     6.9735     2.8146 H       
  42 H42           -0.7261     6.9768     3.3802 H       
  43 H43           -1.0829     6.8031     1.6450 H       
  44 H44           -1.9446     3.5824     4.3324 H       
  45 H45           -1.2310     5.0895     4.9549 H       
  46 H46           -2.9239     5.0669     4.4054 H       
  47 H47            3.6075     0.6416    -1.2928 H       
  48 H48            5.3974    -0.3049     0.1069 H       
  49 H49            5.8247     0.6145     2.3497 H       
  50 H50            4.4629     2.4807     3.1987 H       
  51 H51            2.6785     3.4402     1.8007 H       
  52 H52           -1.4987     0.6414    -2.0027 H       
  53 H53           -2.2764     1.8557    -0.9592 H       
  54 H54           -2.3919     3.4151    -2.9361 H       
  55 H55           -3.7534     0.7164    -2.8484 H       
  56 H56           -2.5990     3.2677    -5.5718 H       
  57 H57           -4.8832    -0.2503    -4.8337 H       
  58 H58           -4.0514     0.1272    -6.3614 H       
  59 H59           -3.1136    -0.4063    -4.9457 H       
  60 H60           -4.6594     2.6908    -1.8007 H       
  61 H61           -0.0474    -1.0468    -7.4123 H       
  62 H62           -0.7908     0.1616    -5.4170 H       
  63 H63           -1.1797    -0.2240   -10.7607 H       
  64 H64           -0.2122    -1.2347    -9.8306 H       
@<TRIPOS>BOND
   1    1    2 2
   2    1    3 1
   3    1    4 1
   4    1    5 1
   5    3   14 1
   6    4   20 1
   7    5    8 1
   8    5   37 1
   9    6    7 1
  10    6   10 1
  11    7    8 1
  12    7   11 2
  13    8    9 1
  14    8   38 1
  15    9   10 1
  16    9   39 1
  17    9   40 1
  18   10   12 1
  19   10   13 1
  20   12   41 1
  21   12   42 1
  22   12   43 1
  23   13   44 1
  24   13   45 1
  25   13   46 1
  26   14   15 ar
  27   14   19 ar
  28   15   16 ar
  29   15   47 1
  30   16   17 ar
  31   16   48 1
  32   17   18 ar
  33   17   49 1
  34   18   19 ar
  35   18   50 1
  36   19   51 1
  37   20   22 1
  38   20   52 1
  39   20   53 1
  40   21   22 1
  41   21   25 1
  42   22   23 1
  43   22   54 1
  44   23   24 1
  45   23   27 1
  46   23   55 1
  47   24   26 1
  48   24   28 1
  49   24   25 1
  50   25   34 1
  51   25   56 1
  52   26   57 1
  53   26   58 1
  54   26   59 1
  55   27   60 1
  56   29   30 1
  57   29   34 am
  58   29   35 2
  59   30   31 2
  60   31   32 1
  61   31   36 1
  62   32   33 2
  63   32   61 1
  64   33   34 1
  65   33   62 1
  66   36   63 1
  67   36   64 1

#	End of record

