#	Name: ASD01883023
#	Creating user name:	WinNT
#	Creation time:	15. 06. 2019 19:45

#	Modifying user name:	WinNT
#	Modification time:	15. 06. 2019 19:45

#	Program:	/corina/corina34_cracker 3.40 0067  02.08.2006

@<TRIPOS>MOLECULE
ASD01883023
  50   52    0    0    0
SMALL
NO_CHARGES


@<TRIPOS>ATOM
   1 N1             0.4741     0.2374    -0.4889 N.am    
   2 C2             0.2657    -1.0645    -0.7591 C.2     
   3 C3            -1.0421    -1.6025    -0.6782 C.2     
   4 C4            -2.1008    -0.7511    -0.3132 C.2     
   5 C5            -1.8176     0.6027    -0.0427 C.2     
   6 C6            -0.5476     1.0575    -0.1311 C.2     
   7 O7             1.2016    -1.7800    -1.0735 O.2     
   8 C8            -1.2818    -2.9853    -0.9628 C.1     
   9 N9            -1.4720    -4.0823    -1.1885 N.1     
  10 C10            1.8322     0.7797    -0.5766 C.3     
  11 C11            2.0861     1.2918    -1.9959 C.3     
  12 C12           -5.7046    -1.4466    -1.1173 C.ar    
  13 C13           -4.4156    -0.9625    -1.2134 C.ar    
  14 C14           -3.4814    -1.2656    -0.2159 C.ar    
  15 C15           -3.8595    -2.0567     0.8718 C.ar    
  16 C16           -5.1479    -2.5351     0.9587 C.ar    
  17 C17           -6.0736    -2.2325    -0.0333 C.ar    
  18 O18           -7.3425    -2.7064     0.0580 O.3     
  19 C19           -7.7330    -5.6358     2.3757 C.3     
  20 O20           -9.1446    -5.4888     2.5427 O.3     
  21 C21           -9.5737    -4.1372     2.7188 C.3     
  22 C22           -9.2019    -3.3195     1.4791 C.3     
  23 C23           -7.6891    -3.4062     1.2547 C.3     
  24 C24           -7.2872    -4.8783     1.1222 C.3     
  25 C25            3.5045     1.8582    -2.0875 C.3     
  26 C26            3.7584     2.3702    -3.5068 C.3     
  27 F27           -4.0563    -0.1983    -2.2679 F       
  28 H28           -2.6140     1.2754     0.2394 H       
  29 H29           -0.3425     2.0970     0.0784 H       
  30 H30            1.9417     1.6014     0.1311 H       
  31 H31            2.5522    -0.0032    -0.3386 H       
  32 H32            1.9766     0.4701    -2.7036 H       
  33 H33            1.3662     2.0747    -2.2339 H       
  34 H34           -6.4281    -1.2103    -1.8835 H       
  35 H35           -3.1418    -2.2933     1.6434 H       
  36 H36           -5.4399    -3.1469     1.7994 H       
  37 H37           -7.2197    -5.2299     3.2475 H       
  38 H38           -7.4877    -6.6924     2.2685 H       
  39 H39          -10.6545    -4.1142     2.8587 H       
  40 H40           -9.0845    -3.7117     3.5950 H       
  41 H41           -9.7226    -3.7197     0.6091 H       
  42 H42           -9.4888    -2.2788     1.6296 H       
  43 H43           -7.1686    -2.9610     2.1027 H       
  44 H44           -6.2048    -4.9524     1.0175 H       
  45 H45           -7.7693    -5.3100     0.2451 H       
  46 H46            3.6140     2.6799    -1.3798 H       
  47 H47            4.2245     1.0752    -1.8495 H       
  48 H48            3.6489     1.5485    -4.2145 H       
  49 H49            3.0384     3.1532    -3.7448 H       
  50 H50            4.7689     2.7737    -3.5721 H       
@<TRIPOS>BOND
   1    1    2 am
   2    1   10 1
   3    1    6 1
   4    2    3 1
   5    2    7 2
   6    3    4 2
   7    3    8 1
   8    4    5 1
   9    4   14 1
  10    5    6 2
  11    5   28 1
  12    6   29 1
  13    8    9 3
  14   10   11 1
  15   10   30 1
  16   10   31 1
  17   11   25 1
  18   11   32 1
  19   11   33 1
  20   12   13 ar
  21   12   17 ar
  22   12   34 1
  23   13   14 ar
  24   13   27 1
  25   14   15 ar
  26   15   16 ar
  27   15   35 1
  28   16   17 ar
  29   16   36 1
  30   17   18 1
  31   18   23 1
  32   19   20 1
  33   19   24 1
  34   19   37 1
  35   19   38 1
  36   20   21 1
  37   21   22 1
  38   21   39 1
  39   21   40 1
  40   22   23 1
  41   22   41 1
  42   22   42 1
  43   23   24 1
  44   23   43 1
  45   24   44 1
  46   24   45 1
  47   25   26 1
  48   25   46 1
  49   25   47 1
  50   26   48 1
  51   26   49 1
  52   26   50 1

#	End of record

