#	Name: ASD03092609
#	Creating user name:	WinNT
#	Creation time:	15. 06. 2019 20:32

#	Modifying user name:	WinNT
#	Modification time:	15. 06. 2019 20:32

#	Program:	/corina/corina34_cracker 3.40 0067  02.08.2006

@<TRIPOS>MOLECULE
ASD03092609
  35   37    0    0    0
SMALL
NO_CHARGES


@<TRIPOS>ATOM
   1 O1            -0.0143     1.2047     0.0087 O.3     
   2 N2             0.0021    -0.0041     0.0020 N.2     
   3 C3             1.2152    -0.4747    -0.0121 C.2     
   4 C4             2.0809     0.6416    -0.0144 C.2     
   5 C5             1.2318     1.7144    -0.0005 C.2     
   6 C6             1.6061     3.1413     0.0029 C.2     
   7 O7             2.7788     3.4622    -0.0070 O.2     
   8 N8             0.6481     4.0892     0.0168 N.am    
   9 C9             1.6179    -1.9268    -0.0230 C.3     
  10 C10            1.0198     5.5063     0.0202 C.3     
  11 N11           -3.5927     8.7248     0.3470 N.pl3   
  12 C12           -3.5212     9.1026     1.6609 C.2     
  13 C13           -2.4376     8.5574     2.2351 C.2     
  14 C14           -1.7595     7.7657     1.2053 C.ar    
  15 C15           -0.6042     6.9816     1.1889 C.ar    
  16 C16           -0.2270     6.3526     0.0365 C.ar    
  17 C17           -0.9843     6.4876    -1.1216 C.ar    
  18 C18           -2.1284     7.2582    -1.1269 C.ar    
  19 C19           -2.5297     7.9066     0.0368 C.ar    
  20 C20           -4.5119     9.9984     2.3588 C.3     
  21 F21           -0.5958     5.8586    -2.2524 F       
  22 H22            3.1608     0.6469    -0.0243 H       
  23 H23           -0.2875     3.8332     0.0247 H       
  24 H24            1.7054    -2.2719    -1.0532 H       
  25 H25            2.5774    -2.0416     0.4813 H       
  26 H26            0.8622    -2.5173     0.4950 H       
  27 H27            1.6176     5.7230     0.9055 H       
  28 H28            1.6003     5.7317    -0.8744 H       
  29 H29           -4.2906     8.9906    -0.2721 H       
  30 H30           -2.1244     8.6795     3.2615 H       
  31 H31           -0.0104     6.8733     2.0844 H       
  32 H32           -2.7103     7.3582    -2.0312 H       
  33 H33           -5.3062     9.3919     2.7942 H       
  34 H34           -4.0058    10.5549     3.1476 H       
  35 H35           -4.9405    10.6962     1.6394 H       
@<TRIPOS>BOND
   1    1    2 1
   2    1    5 1
   3    2    3 2
   4    3    4 1
   5    3    9 1
   6    4    5 2
   7    4   22 1
   8    5    6 1
   9    6    7 2
  10    6    8 am
  11    8   10 1
  12    8   23 1
  13    9   24 1
  14    9   25 1
  15    9   26 1
  16   10   16 1
  17   10   27 1
  18   10   28 1
  19   11   12 1
  20   11   19 1
  21   11   29 1
  22   12   13 2
  23   12   20 1
  24   13   14 1
  25   13   30 1
  26   14   15 ar
  27   14   19 ar
  28   15   16 ar
  29   15   31 1
  30   16   17 ar
  31   17   18 ar
  32   17   21 1
  33   18   19 ar
  34   18   32 1
  35   20   33 1
  36   20   34 1
  37   20   35 1

#	End of record

