#	Name: ASD01812994
#	Creating user name:	WinNT
#	Creation time:	15. 06. 2019 19:29

#	Modifying user name:	WinNT
#	Modification time:	15. 06. 2019 19:29

#	Program:	/corina/corina34_cracker 3.40 0067  02.08.2006

@<TRIPOS>MOLECULE
ASD01812994
  43   46    0    0    0
SMALL
NO_CHARGES


@<TRIPOS>ATOM
   1 N1            -0.0158     1.3131     0.0093 N.ar    
   2 C2             0.0021    -0.0041     0.0020 C.ar    
   3 N3             1.1297    -0.6934    -0.0120 N.ar    
   4 C4             2.2937    -0.0788    -0.0198 C.ar    
   5 C5             2.3340     1.3184    -0.0131 C.ar    
   6 C6             1.1134     2.0143     0.0022 C.ar    
   7 C7             3.7270    -0.5433    -0.0361 C.3     
   8 N8             4.5517     0.6712    -0.0379 N.am    
   9 C9             3.7399     1.7438    -0.0246 C.2     
  10 C10            6.0161     0.7089    -0.0519 C.3     
  11 C11            6.5045     0.7290    -1.4774 C.ar    
  12 O12            1.0880     3.3668     0.0093 O.3     
  13 O13            4.1161     2.9000    -0.0228 O.2     
  14 C14            6.6977     1.9352    -2.1247 C.ar    
  15 C15            7.1456     1.9542    -3.4321 C.ar    
  16 C16            7.4006     0.7659    -4.0931 C.ar    
  17 C17            7.2070    -0.4410    -3.4448 C.ar    
  18 C18            6.7645    -0.4586    -2.1355 C.ar    
  19 Cl19           7.9626     0.7890    -5.7354 Cl      
  20 C20           -0.1971     3.9915     0.0245 C.3     
  21 C21           -0.0251     5.5118     0.0305 C.3     
  22 O22            0.5529     5.9404    -1.2080 O.3     
  23 C23           -0.3578     6.8098    -1.8995 C.3     
  24 C24           -1.2630     7.4093    -0.7941 C.3     
  25 C25           -1.4035     6.1943     0.1630 C.3     
  26 H26           -0.9363    -0.5387     0.0081 H       
  27 H27            3.9381    -1.1382     0.8526 H       
  28 H28            3.9208    -1.1292    -0.9346 H       
  29 H29            6.3614     1.6053     0.4631 H       
  30 H30            6.4071    -0.1740     0.4537 H       
  31 H31            6.4982     2.8627    -1.6087 H       
  32 H32            7.2961     2.8966    -3.9377 H       
  33 H33            7.4059    -1.3689    -3.9602 H       
  34 H34            6.6176    -1.4005    -1.6279 H       
  35 H35           -0.7568     3.6927    -0.8618 H       
  36 H36           -0.7402     3.6838     0.9180 H       
  37 H37            0.6169     5.8079     0.8602 H       
  38 H38            0.1896     7.6016    -2.4109 H       
  39 H39           -0.9562     6.2417    -2.6117 H       
  40 H40           -0.7735     8.2467    -0.2967 H       
  41 H41           -2.2314     7.7059    -1.1972 H       
  42 H42           -2.1997     5.5284    -0.1697 H       
  43 H43           -1.5757     6.5252     1.1872 H       
@<TRIPOS>BOND
   1    1    2 ar
   2    1    6 ar
   3    2    3 ar
   4    2   26 1
   5    3    4 ar
   6    4    7 1
   7    4    5 ar
   8    5    6 ar
   9    5    9 1
  10    6   12 1
  11    7    8 1
  12    7   27 1
  13    7   28 1
  14    8    9 am
  15    8   10 1
  16    9   13 2
  17   10   11 1
  18   10   29 1
  19   10   30 1
  20   11   14 ar
  21   11   18 ar
  22   12   20 1
  23   14   15 ar
  24   14   31 1
  25   15   16 ar
  26   15   32 1
  27   16   17 ar
  28   16   19 1
  29   17   18 ar
  30   17   33 1
  31   18   34 1
  32   20   21 1
  33   20   35 1
  34   20   36 1
  35   21   22 1
  36   21   25 1
  37   21   37 1
  38   22   23 1
  39   23   24 1
  40   23   38 1
  41   23   39 1
  42   24   25 1
  43   24   40 1
  44   24   41 1
  45   25   42 1
  46   25   43 1

#	End of record

