#	Name: ASD00069284
#	Creating user name:	WinNT
#	Creation time:	15. 06. 2019 18:29

#	Modifying user name:	WinNT
#	Modification time:	15. 06. 2019 18:29

#	Program:	/corina/corina34_cracker 3.40 0067  02.08.2006

@<TRIPOS>MOLECULE
ASD00069284
  92   95    0    0    0
SMALL
NO_CHARGES


@<TRIPOS>ATOM
   1 C1             0.2342     1.2079     1.0715 C.ar    
   2 C2             0.2118    -0.1597     0.8181 C.ar    
   3 C3             1.4044    -0.8032     0.4765 C.ar    
   4 C4             2.5719    -0.0384     0.4047 C.ar    
   5 C5             2.5085     1.3171     0.6717 C.ar    
   6 N6             1.3692     1.8931     0.9907 N.ar    
   7 C7            -1.0207     1.9079     1.4289 C.2     
   8 O8            -2.0626     1.2882     1.4996 O.2     
   9 O9            -1.0066     3.2318     1.6755 O.3     
  10 C10            0.7782    -4.3025    -0.0664 C.2     
  11 N11            0.3786    -3.0873     0.2365 N.2     
  12 C12            1.4305    -2.2599     0.1979 C.2     
  13 C13            2.5329    -2.9929    -0.1442 C.2     
  14 N14            2.1235    -4.2705    -0.3093 N.pl3   
  15 C15            2.9657    -5.4105    -0.6799 C.3     
  16 O16            4.3153    -4.9713    -0.8468 O.3     
  17 C17            5.2243    -6.0120    -1.2111 C.3     
  18 C18            6.6314    -5.4305    -1.3618 C.3     
  19 Si19           7.8165    -6.7872    -1.8368 Si      
  20 C20            7.2802    -7.5425    -3.4532 C.3     
  21 C21            9.5299    -6.0791    -2.0203 C.3     
  22 C22            7.8244    -8.0969    -0.5118 C.3     
  23 C23           -0.0793    -5.5002    -0.1278 C.2     
  24 N24           -1.3964    -5.4005     0.1400 N.am    
  25 O25            0.4019    -6.5783    -0.4201 O.2     
  26 C26           -2.2316    -6.5117    -0.0301 C.ar    
  27 C27           -3.4794    -6.5498     0.5909 C.ar    
  28 C28           -4.3025    -7.6546     0.4180 C.ar    
  29 C29           -3.8826    -8.7132    -0.3689 C.ar    
  30 C30           -2.6448    -8.6738    -0.9839 C.ar    
  31 C31           -1.8220    -7.5749    -0.8214 C.ar    
  32 F32           -5.5123    -7.6966     1.0179 F       
  33 N33           -3.9011    -5.4771     1.3869 N.3     
  34 C34           -4.0636    -5.8921     2.7861 C.3     
  35 C35           -4.3820    -4.6688     3.6487 C.3     
  36 C36           -5.6677    -4.0117     3.1391 C.3     
  37 C37           -5.4889    -3.6329     1.6663 C.3     
  38 C38           -5.1384    -4.8862     0.8612 C.3     
  39 N39           -4.5647    -5.0862     5.0410 N.am    
  40 C40           -4.3539    -4.2077     6.0411 C.2     
  41 O41           -4.0123    -3.0694     5.7880 O.2     
  42 O42           -4.5218    -4.5914     7.3207 O.3     
  43 C43           -4.2772    -3.5926     8.3459 C.3     
  44 C44           -5.2271    -2.4104     8.1431 C.3     
  45 C45           -4.5170    -4.2087     9.7257 C.3     
  46 C46           -2.8298    -3.1063     8.2491 C.3     
  47 C47           -2.2736     3.8518     2.0200 C.3     
  48 H48           -0.7121    -0.7151     0.8847 H       
  49 H49            3.5127    -0.5005     0.1442 H       
  50 H50            3.4081     1.9122     0.6174 H       
  51 H51            3.5403    -2.6214    -0.2605 H       
  52 H52            2.9235    -6.1642     0.1063 H       
  53 H53            2.6051    -5.8398    -1.6147 H       
  54 H54            5.2289    -6.7783    -0.4359 H       
  55 H55            4.9105    -6.4539    -2.1569 H       
  56 H56            6.6268    -4.6643    -2.1371 H       
  57 H57            6.9451    -4.9886    -0.4161 H       
  58 H58            7.2756    -6.7762    -4.2285 H       
  59 H59            7.9736    -8.3363    -3.7311 H       
  60 H60            6.2778    -7.9568    -3.3459 H       
  61 H61            9.8436    -5.6373    -1.0746 H       
  62 H62           10.2232    -6.8729    -2.2982 H       
  63 H63            9.5252    -5.3129    -2.7955 H       
  64 H64            6.8219    -8.5112    -0.4045 H       
  65 H65            8.5177    -8.8907    -0.7897 H       
  66 H66            8.1381    -7.6550     0.4339 H       
  67 H67           -1.7658    -4.5591     0.4506 H       
  68 H68           -4.5232    -9.5723    -0.5025 H       
  69 H69           -2.3216    -9.5023    -1.5966 H       
  70 H70           -0.8578    -7.5461    -1.3072 H       
  71 H71           -4.8799    -6.6106     2.8593 H       
  72 H72           -3.1409    -6.3540     3.1374 H       
  73 H73           -3.5597    -3.9559     3.5868 H       
  74 H74           -6.4978    -4.7112     3.2371 H       
  75 H75           -5.8748    -3.1151     3.7233 H       
  76 H76           -6.4157    -3.2033     1.2859 H       
  77 H77           -4.6841    -2.9037     1.5733 H       
  78 H78           -4.9963    -4.6175    -0.1856 H       
  79 H79           -5.9497    -5.6094     0.9435 H       
  80 H80           -4.8374    -5.9949     5.2431 H       
  81 H81           -6.2582    -2.7569     8.2121 H       
  82 H82           -5.0435    -1.6607     8.9127 H       
  83 H83           -5.0562    -1.9715     7.1601 H       
  84 H84           -3.8403    -5.0509     9.8701 H       
  85 H85           -4.3334    -3.4589    10.4952 H       
  86 H86           -5.5482    -4.5552     9.7946 H       
  87 H87           -2.6589    -2.6674     7.2661 H       
  88 H88           -2.6462    -2.3565     9.0187 H       
  89 H89           -2.1531    -3.9485     8.3935 H       
  90 H90           -2.9800     3.7139     1.2014 H       
  91 H91           -2.6703     3.3897     2.9240 H       
  92 H92           -2.1216     4.9171     2.1932 H       
@<TRIPOS>BOND
   1    1    2 ar
   2    1    6 ar
   3    1    7 1
   4    2    3 ar
   5    2   48 1
   6    3    4 ar
   7    3   12 1
   8    4    5 ar
   9    4   49 1
  10    5    6 ar
  11    5   50 1
  12    7    8 2
  13    7    9 1
  14    9   47 1
  15   10   11 2
  16   10   14 1
  17   10   23 1
  18   11   12 1
  19   12   13 2
  20   13   14 1
  21   13   51 1
  22   14   15 1
  23   15   16 1
  24   15   52 1
  25   15   53 1
  26   16   17 1
  27   17   18 1
  28   17   54 1
  29   17   55 1
  30   18   19 1
  31   18   56 1
  32   18   57 1
  33   19   20 1
  34   19   21 1
  35   19   22 1
  36   20   58 1
  37   20   59 1
  38   20   60 1
  39   21   61 1
  40   21   62 1
  41   21   63 1
  42   22   64 1
  43   22   65 1
  44   22   66 1
  45   23   24 am
  46   23   25 2
  47   24   26 1
  48   24   67 1
  49   26   27 ar
  50   26   31 ar
  51   27   28 ar
  52   27   33 1
  53   28   29 ar
  54   28   32 1
  55   29   30 ar
  56   29   68 1
  57   30   31 ar
  58   30   69 1
  59   31   70 1
  60   33   34 1
  61   33   38 1
  62   34   35 1
  63   34   71 1
  64   34   72 1
  65   35   36 1
  66   35   39 1
  67   35   73 1
  68   36   37 1
  69   36   74 1
  70   36   75 1
  71   37   38 1
  72   37   76 1
  73   37   77 1
  74   38   78 1
  75   38   79 1
  76   39   40 am
  77   39   80 1
  78   40   41 2
  79   40   42 1
  80   42   43 1
  81   43   44 1
  82   43   46 1
  83   43   45 1
  84   44   81 1
  85   44   82 1
  86   44   83 1
  87   45   84 1
  88   45   85 1
  89   45   86 1
  90   46   87 1
  91   46   88 1
  92   46   89 1
  93   47   90 1
  94   47   91 1
  95   47   92 1

#	End of record

