#	Name: ASD01231319
#	Creating user name:	WinNT
#	Creation time:	15. 06. 2019 19:15

#	Modifying user name:	WinNT
#	Modification time:	15. 06. 2019 19:15

#	Program:	/corina/corina34_cracker 3.40 0067  02.08.2006

@<TRIPOS>MOLECULE
ASD01231319
  53   55    0    0    0
SMALL
NO_CHARGES


@<TRIPOS>ATOM
   1 C1            -3.4815     1.0823     1.4457 C.3     
   2 C2            -2.9994    -0.3696     1.4688 C.3     
   3 C3            -4.1980    -1.3075     1.3127 C.3     
   4 S4            -1.8365    -0.6423     0.1036 S.o2    
   5 O5            -2.5047    -0.5486    -1.1470 O.2     
   6 O6            -0.6200     0.0538     0.3381 O.2     
   7 N7            -1.4225    -2.2410     0.2265 N.am    
   8 C8            -0.6933    -2.7204     1.4033 C.3     
   9 C9            -1.1771    -4.1328     1.7943 C.3     
  10 C10           -0.1911    -5.0438     1.0328 C.3     
  11 C11            1.0661    -4.2166     0.8678 C.ar    
  12 C12            2.3562    -4.6035     0.5561 C.ar    
  13 C13            3.3666    -3.6505     0.4561 C.ar    
  14 C14            3.0705    -2.3055     0.6717 C.ar    
  15 C15            1.7815    -1.9288     0.9820 C.ar    
  16 C16            0.7775    -2.8801     1.0808 C.ar    
  17 O17            5.9858    -3.2481    -0.0410 O.3     
  18 B18            4.8320    -4.0887     0.1017 Du      
  19 O19            5.3107    -5.4176    -0.1499 O.3     
  20 C20            6.6028    -5.4678     0.4909 C.3     
  21 C21            7.0605    -3.9969     0.5647 C.3     
  22 C22            8.3569    -3.8017    -0.2240 C.3     
  23 C23            7.2522    -3.5707     2.0216 C.3     
  24 C24            6.4780    -6.0586     1.8967 C.3     
  25 C25            7.5828    -6.2896    -0.3489 C.3     
  26 H26           -4.1803     1.2462     2.2660 H       
  27 H27           -2.6276     1.7505     1.5568 H       
  28 H28           -3.9801     1.2846     0.4978 H       
  29 H29           -2.5008    -0.5718     2.4167 H       
  30 H30           -4.7464    -1.0487     0.4070 H       
  31 H31           -3.8471    -2.3371     1.2434 H       
  32 H32           -4.8546    -1.2049     2.1768 H       
  33 H33           -1.6628    -2.8600    -0.4805 H       
  34 H34           -0.8265    -2.0308     2.2368 H       
  35 H35           -1.0945    -4.2865     2.8702 H       
  36 H36           -2.1995    -4.2997     1.4553 H       
  37 H37            0.0204    -5.9414     1.6139 H       
  38 H38           -0.5988    -5.3109     0.0578 H       
  39 H39            2.5809    -5.6468     0.3903 H       
  40 H40            3.8490    -1.5607     0.5963 H       
  41 H41            1.5523    -0.8868     1.1494 H       
  42 H42            8.6354    -2.7480    -0.2104 H       
  43 H43            9.1514    -4.3934     0.2307 H       
  44 H44            8.2075    -4.1248    -1.2543 H       
  45 H45            6.3252    -3.7312     2.5721 H       
  46 H46            8.0491    -4.1629     2.4716 H       
  47 H47            7.5188    -2.5145     2.0591 H       
  48 H48            6.0987    -7.0783     1.8300 H       
  49 H49            7.4570    -6.0657     2.3760 H       
  50 H50            5.7895    -5.4526     2.4857 H       
  51 H51            7.6719    -5.8462    -1.3407 H       
  52 H52            8.5593    -6.2962     0.1352 H       
  53 H53            7.2152    -7.3117    -0.4396 H       
@<TRIPOS>BOND
   1    1    2 1
   2    1   26 1
   3    1   27 1
   4    1   28 1
   5    2    3 1
   6    2    4 1
   7    2   29 1
   8    3   30 1
   9    3   31 1
  10    3   32 1
  11    4    5 2
  12    4    6 2
  13    4    7 am
  14    7    8 1
  15    7   33 1
  16    8    9 1
  17    8   16 1
  18    8   34 1
  19    9   10 1
  20    9   35 1
  21    9   36 1
  22   10   11 1
  23   10   37 1
  24   10   38 1
  25   11   12 ar
  26   11   16 ar
  27   12   13 ar
  28   12   39 1
  29   13   14 ar
  30   13   18 1
  31   14   15 ar
  32   14   40 1
  33   15   16 ar
  34   15   41 1
  35   17   18 1
  36   17   21 1
  37   18   19 1
  38   19   20 1
  39   20   21 1
  40   20   24 1
  41   20   25 1
  42   21   22 1
  43   21   23 1
  44   22   42 1
  45   22   43 1
  46   22   44 1
  47   23   45 1
  48   23   46 1
  49   23   47 1
  50   24   48 1
  51   24   49 1
  52   24   50 1
  53   25   51 1
  54   25   52 1
  55   25   53 1

#	End of record

