#	Name: ASD01900627
#	Creating user name:	WinNT
#	Creation time:	15. 06. 2019 19:52

#	Modifying user name:	WinNT
#	Modification time:	15. 06. 2019 19:52

#	Program:	/corina/corina34_cracker 3.40 0067  02.08.2006

@<TRIPOS>MOLECULE
ASD01900627
  34   37    0    0    0
SMALL
NO_CHARGES


@<TRIPOS>ATOM
   1 C1            -0.0167     1.3807     0.0096 C.ar    
   2 C2             0.0021    -0.0041     0.0020 C.ar    
   3 C3             1.1994    -0.6927    -0.0153 C.ar    
   4 C4             2.4014     0.0048    -0.0254 C.ar    
   5 C5             2.3764     1.4058    -0.0132 C.ar    
   6 C6             1.1681     2.0902     0.0021 C.ar    
   7 O7             3.5789    -0.6553    -0.0540 O.3     
   8 C8             4.7407    -0.0421     0.2307 C.2     
   9 C9             4.8697     1.3053     0.2632 C.2     
  10 C10            3.6749     2.1264    -0.0107 C.2     
  11 N11            3.7547     3.4149    -0.2377 N.2     
  12 C12            5.9262    -0.8730     0.5206 C.ar    
  13 N13            7.0882    -0.2780     0.8053 N.ar    
  14 C14            8.1796    -0.9506     1.0723 C.ar    
  15 C15            8.1643    -2.3565     1.0680 C.ar    
  16 C16            6.9486    -3.0279     0.7702 C.ar    
  17 C17            5.8090    -2.2540     0.4973 C.ar    
  18 C18            9.3136    -3.1105     1.3486 C.ar    
  19 C19            9.2461    -4.4711     1.3311 C.ar    
  20 C20            8.0530    -5.1291     1.0389 C.ar    
  21 C21            6.9166    -4.4309     0.7614 C.ar    
  22 O22            5.0155     4.0593    -0.2246 O.3     
  23 Cl23           1.2027    -2.4287    -0.0238 Cl      
  24 H24           -0.9599     1.9068     0.0170 H       
  25 H25           -0.9290    -0.5512     0.0100 H       
  26 H26            1.1550     3.1701     0.0077 H       
  27 H27            5.8210     1.7664     0.4839 H       
  28 H28            9.0952    -0.4234     1.2963 H       
  29 H29            4.8645    -2.7242     0.2665 H       
  30 H30           10.2461    -2.6156     1.5765 H       
  31 H31           10.1322    -5.0495     1.5470 H       
  32 H32            8.0289    -6.2089     1.0319 H       
  33 H33            5.9983    -4.9529     0.5367 H       
  34 H34            4.9737     5.0089    -0.4024 H       
@<TRIPOS>BOND
   1    1    2 ar
   2    1    6 ar
   3    1   24 1
   4    2    3 ar
   5    2   25 1
   6    3    4 ar
   7    3   23 1
   8    4    5 ar
   9    4    7 1
  10    5    6 ar
  11    5   10 1
  12    6   26 1
  13    7    8 1
  14    8    9 2
  15    8   12 1
  16    9   10 1
  17    9   27 1
  18   10   11 2
  19   11   22 1
  20   12   13 ar
  21   12   17 ar
  22   13   14 ar
  23   14   15 ar
  24   14   28 1
  25   15   16 ar
  26   15   18 ar
  27   16   17 ar
  28   16   21 ar
  29   17   29 1
  30   18   19 ar
  31   18   30 1
  32   19   20 ar
  33   19   31 1
  34   20   21 ar
  35   20   32 1
  36   21   33 1
  37   22   34 1

#	End of record

