#	Name: ASD01148355
#	Creating user name:	WinNT
#	Creation time:	15. 06. 2019 19:02

#	Modifying user name:	WinNT
#	Modification time:	15. 06. 2019 19:02

#	Program:	/corina/corina34_cracker 3.40 0067  02.08.2006

@<TRIPOS>MOLECULE
ASD01148355
  55   58    0    0    0
SMALL
NO_CHARGES


@<TRIPOS>ATOM
   1 C1            -0.4094     1.8299    -0.0440 C.ar    
   2 C2            -0.4704     0.4495     0.0156 C.ar    
   3 C3             0.6968    -0.2916     0.0946 C.ar    
   4 C4             1.9221     0.3496     0.1137 C.ar    
   5 C5             1.9812     1.7295     0.0540 C.ar    
   6 C6             0.8163     2.4692    -0.0248 C.ar    
   7 C7             3.3166     2.4276     0.0749 C.3     
   8 O8             4.3319     1.6186    -0.5529 O.3     
   9 C9             3.3021     3.6781    -0.8365 C.3     
  10 C10            3.8441     3.1378    -2.1462 C.2     
  11 N11            4.3965     1.9943    -1.9144 N.2     
  12 C12            3.7547     3.8047    -3.4600 C.ar    
  13 C13            4.2989     3.1932    -4.5925 C.ar    
  14 C14            3.1210     5.0446    -3.5723 C.ar    
  15 C15            3.0377     5.6666    -4.7978 C.ar    
  16 C16            3.5868     5.0579    -5.9286 C.ar    
  17 C17            4.2155     3.8152    -5.8175 C.ar    
  18 C18            3.4969     5.7254    -7.2442 C.2     
  19 O19            4.0694     5.2520    -8.2064 O.2     
  20 N20            2.7802     6.8591    -7.3770 N.am    
  21 C21            4.8079     3.1586    -7.0377 C.3     
  22 C22            3.7165     2.7959     1.5050 C.3     
  23 F23            3.7885     1.6352     2.2827 F       
  24 F24            4.9651     3.4268     1.4923 F       
  25 F25            2.7617     3.6625     2.0478 F       
  26 Cl26           0.6220    -2.0243     0.1702 Cl      
  27 Cl27          -2.0092    -0.3537    -0.0079 Cl      
  28 N28            2.6950     7.4919    -8.6241 N.pl3   
  29 C29            1.8441     6.9281    -9.6749 C.3     
  30 C30            3.4213     8.6603    -8.8654 C.ar    
  31 C31            3.3380     9.2890   -10.1013 C.ar    
  32 C32            4.0571    10.4443   -10.3364 C.ar    
  33 C33            4.8595    10.9754    -9.3432 C.ar    
  34 C34            4.9451    10.3518    -8.1119 C.ar    
  35 C35            4.2242     9.1993    -7.8682 C.ar    
  36 H36           -1.3191     2.4083    -0.1101 H       
  37 H37            2.8328    -0.2278     0.1757 H       
  38 H38            0.8635     3.5471    -0.0714 H       
  39 H39            2.2864     4.0528    -0.9632 H       
  40 H40            3.9553     4.4546    -0.4384 H       
  41 H41            4.7852     2.2327    -4.5066 H       
  42 H42            2.6961     5.5151    -2.6979 H       
  43 H43            2.5476     6.6250    -4.8847 H       
  44 H44            2.3234     7.2369    -6.6092 H       
  45 H45            5.8043     3.5613    -7.2193 H       
  46 H46            4.8747     2.0829    -6.8752 H       
  47 H47            4.1730     3.3568    -7.9013 H       
  48 H48            0.8421     7.3500    -9.5965 H       
  49 H49            2.2645     7.1693   -10.6513 H       
  50 H50            1.7926     5.8455    -9.5590 H       
  51 H51            2.7118     8.8745   -10.8775 H       
  52 H52            3.9931    10.9334   -11.2972 H       
  53 H53            5.4208    11.8790    -9.5297 H       
  54 H54            5.5730    10.7690    -7.3385 H       
  55 H55            4.2915     8.7128    -6.9063 H       
@<TRIPOS>BOND
   1    1    2 ar
   2    1    6 ar
   3    1   36 1
   4    2    3 ar
   5    2   27 1
   6    3    4 ar
   7    3   26 1
   8    4    5 ar
   9    4   37 1
  10    5    6 ar
  11    5    7 1
  12    6   38 1
  13    7    8 1
  14    7    9 1
  15    7   22 1
  16    8   11 1
  17    9   10 1
  18    9   39 1
  19    9   40 1
  20   10   11 2
  21   10   12 1
  22   12   13 ar
  23   12   14 ar
  24   13   17 ar
  25   13   41 1
  26   14   15 ar
  27   14   42 1
  28   15   16 ar
  29   15   43 1
  30   16   17 ar
  31   16   18 1
  32   17   21 1
  33   18   19 2
  34   18   20 am
  35   20   28 1
  36   20   44 1
  37   21   45 1
  38   21   46 1
  39   21   47 1
  40   22   23 1
  41   22   24 1
  42   22   25 1
  43   28   29 1
  44   28   30 1
  45   29   48 1
  46   29   49 1
  47   29   50 1
  48   30   31 ar
  49   30   35 ar
  50   31   32 ar
  51   31   51 1
  52   32   33 ar
  53   32   52 1
  54   33   34 ar
  55   33   53 1
  56   34   35 ar
  57   34   54 1
  58   35   55 1

#	End of record

