#	Name: ASD01883057
#	Creating user name:	WinNT
#	Creation time:	15. 06. 2019 19:45

#	Modifying user name:	WinNT
#	Modification time:	15. 06. 2019 19:45

#	Program:	/corina/corina34_cracker 3.40 0067  02.08.2006

@<TRIPOS>MOLECULE
ASD01883057
  46   48    0    0    0
SMALL
NO_CHARGES


@<TRIPOS>ATOM
   1 N1            -0.0162     1.3417     0.0094 N.am    
   2 C2             0.0021    -0.0041     0.0020 C.2     
   3 C3            -1.2160    -0.7274     0.0098 C.2     
   4 C4            -2.4261    -0.0111     0.0252 C.2     
   5 C5            -2.3785     1.3971     0.0323 C.2     
   6 C6            -1.1850     2.0325     0.0299 C.2     
   7 O7             1.0657    -0.6000    -0.0117 O.2     
   8 C8            -1.2151    -2.1594     0.0016 C.1     
   9 N9            -1.2143    -3.2953    -0.0049 N.1     
  10 C10            1.2513     2.0763     0.0013 C.3     
  11 C11           -3.7215    -0.7210     0.0332 C.ar    
  12 C12            1.6787     2.3398    -1.4440 C.3     
  13 C13            2.9349     3.2133    -1.4531 C.3     
  14 C14            3.3623     3.4768    -2.8984 C.3     
  15 C15            3.6612     2.1464    -3.5925 C.3     
  16 C16            2.4050     1.2730    -3.5833 C.3     
  17 C17            1.9775     1.0095    -2.1381 C.3     
  18 C18           -4.1761    -1.3389     1.1997 C.ar    
  19 C19           -5.3863    -1.9995     1.2010 C.ar    
  20 C20           -6.1536    -2.0536     0.0495 C.ar    
  21 C21           -5.7152    -1.4462    -1.1114 C.ar    
  22 C22           -4.5038    -0.7730    -1.1285 C.ar    
  23 O23           -4.0721    -0.1756    -2.2682 O.3     
  24 C24           -4.9175    -0.2798    -3.4156 C.3     
  25 H25           -3.2949     1.9686     0.0437 H       
  26 H26           -1.1609     3.1122     0.0358 H       
  27 H27            1.1243     3.0257     0.5214 H       
  28 H28            2.0168     1.4858     0.5046 H       
  29 H29            0.8755     2.8531    -1.9726 H       
  30 H30            2.7220     4.1610    -0.9586 H       
  31 H31            3.7381     2.7000    -0.9245 H       
  32 H32            2.5591     3.9900    -3.4270 H       
  33 H33            4.2573     4.0990    -2.9049 H       
  34 H34            3.9657     2.3341    -4.6221 H       
  35 H35            4.4644     1.6331    -3.0638 H       
  36 H36            1.6017     1.7862    -4.1120 H       
  37 H37            2.6179     0.3252    -4.0778 H       
  38 H38            2.7808     0.4962    -1.6094 H       
  39 H39            1.0826     0.3872    -2.1316 H       
  40 H40           -3.5805    -1.2997     2.0998 H       
  41 H41           -5.7371    -2.4772     2.1038 H       
  42 H42           -7.1001    -2.5737     0.0590 H       
  43 H43           -6.3189    -1.4929    -2.0057 H       
  44 H44           -5.8849     0.1721    -3.1964 H       
  45 H45           -4.4558     0.2396    -4.2554 H       
  46 H46           -5.0566    -1.3305    -3.6703 H       
@<TRIPOS>BOND
   1    1    2 am
   2    1   10 1
   3    1    6 1
   4    2    3 1
   5    2    7 2
   6    3    4 2
   7    3    8 1
   8    4    5 1
   9    4   11 1
  10    5    6 2
  11    5   25 1
  12    6   26 1
  13    8    9 3
  14   10   12 1
  15   10   27 1
  16   10   28 1
  17   11   18 ar
  18   11   22 ar
  19   12   13 1
  20   12   17 1
  21   12   29 1
  22   13   14 1
  23   13   30 1
  24   13   31 1
  25   14   15 1
  26   14   32 1
  27   14   33 1
  28   15   16 1
  29   15   34 1
  30   15   35 1
  31   16   17 1
  32   16   36 1
  33   16   37 1
  34   17   38 1
  35   17   39 1
  36   18   19 ar
  37   18   40 1
  38   19   20 ar
  39   19   41 1
  40   20   21 ar
  41   20   42 1
  42   21   22 ar
  43   21   43 1
  44   22   23 1
  45   23   24 1
  46   24   44 1
  47   24   45 1
  48   24   46 1

#	End of record

