#	Name: ASD01881425
#	Creating user name:	WinNT
#	Creation time:	15. 06. 2019 19:42

#	Modifying user name:	WinNT
#	Modification time:	15. 06. 2019 19:42

#	Program:	/corina/corina34_cracker 3.40 0067  02.08.2006

@<TRIPOS>MOLECULE
ASD01881425
  47   50    0    0    0
SMALL
NO_CHARGES


@<TRIPOS>ATOM
   1 Cl1           -3.7417    -2.9827    -2.3162 Cl      
   2 O2             1.6923     1.3563    -3.0105 O.3     
   3 C3            -6.0060    -3.6347    -5.7978 C.ar    
   4 C4            -4.7532    -3.3084    -5.3226 C.ar    
   5 C5            -6.9419    -2.6373    -6.0349 C.ar    
   6 C6            -6.6200    -1.3066    -5.7944 C.ar    
   7 C7            -5.3687    -0.9737    -5.3190 C.ar    
   8 C8            -4.4263    -1.9744    -5.0799 C.ar    
   9 C9            -3.0815    -1.6209    -4.5690 C.2     
  10 C10           -2.6793    -2.0388    -3.3132 C.2     
  11 C11           -2.1927    -0.8565    -5.3636 C.2     
  12 C12           -0.9713    -0.5362    -4.8976 C.2     
  13 N13           -0.5674    -0.9395    -3.6570 N.pl3   
  14 C14           -1.3966    -1.6871    -2.8564 C.2     
  15 C15            0.5801    -0.7668    -2.9447 C.2     
  16 N16            0.4258    -1.3729    -1.7958 N.2     
  17 N17           -0.7368    -1.9206    -1.7323 N.2     
  18 C18            1.8049    -0.0146    -3.3976 C.3     
  19 Cl19          -7.7934    -0.0626    -6.0935 Cl      
  20 O20           -8.1753    -2.9624    -6.5032 O.3     
  21 C21           -8.4855    -4.2784    -6.6214 C.ar    
  22 C22            2.5806     3.6024    -2.9309 C.3     
  23 C23            2.8083     2.1622    -3.3942 C.3     
  24 C24           -9.0501    -4.9775    -5.5574 C.ar    
  25 C25           -9.3510    -6.3146    -5.7175 C.ar    
  26 N26           -9.1102    -6.9298    -6.8597 N.ar    
  27 C27           -8.5763    -6.3017    -7.8905 C.ar    
  28 C28           -8.2524    -4.9631    -7.8121 C.ar    
  29 C29           -8.3228    -7.0549    -9.1709 C.3     
  30 H30           -6.2578    -4.6672    -5.9900 H       
  31 H31           -4.0260    -4.0852    -5.1381 H       
  32 H32           -5.1186     0.0603    -5.1325 H       
  33 H33           -2.4961    -0.5293    -6.3472 H       
  34 H34           -0.3018     0.0466    -5.5129 H       
  35 H35            1.8910    -0.0800    -4.4822 H       
  36 H36            2.6906    -0.4510    -2.9359 H       
  37 H37            1.6741     3.9936    -3.3927 H       
  38 H38            2.4737     3.6226    -1.8463 H       
  39 H39            3.4318     4.2171    -3.2236 H       
  40 H40            3.7148     1.7710    -2.9324 H       
  41 H41            2.9152     2.1420    -4.4787 H       
  42 H42           -9.2494    -4.4800    -4.6198 H       
  43 H43           -9.7888    -6.8646    -4.8976 H       
  44 H44           -7.8161    -4.4550    -8.6594 H       
  45 H45           -9.2008    -6.9856    -9.8131 H       
  46 H46           -7.4632    -6.6224    -9.6827 H       
  47 H47           -8.1211    -8.1015    -8.9429 H       
@<TRIPOS>BOND
   1    1   10 1
   2    2   18 1
   3    2   23 1
   4    3    4 ar
   5    3    5 ar
   6    3   30 1
   7    4    8 ar
   8    4   31 1
   9    5    6 ar
  10    5   20 1
  11    6    7 ar
  12    6   19 1
  13    7    8 ar
  14    7   32 1
  15    8    9 1
  16    9   10 2
  17    9   11 1
  18   10   14 1
  19   11   12 2
  20   11   33 1
  21   12   13 1
  22   12   34 1
  23   13   14 1
  24   13   15 1
  25   14   17 2
  26   15   16 2
  27   15   18 1
  28   16   17 1
  29   18   35 1
  30   18   36 1
  31   20   21 1
  32   21   24 ar
  33   21   28 ar
  34   22   23 1
  35   22   37 1
  36   22   38 1
  37   22   39 1
  38   23   40 1
  39   23   41 1
  40   24   25 ar
  41   24   42 1
  42   25   26 ar
  43   25   43 1
  44   26   27 ar
  45   27   28 ar
  46   27   29 1
  47   28   44 1
  48   29   45 1
  49   29   46 1
  50   29   47 1

#	End of record

