#	Name: ASD01820066
#	Creating user name:	WinNT
#	Creation time:	15. 06. 2019 19:36

#	Modifying user name:	WinNT
#	Modification time:	15. 06. 2019 19:36

#	Program:	/corina/corina34_cracker 3.40 0067  02.08.2006

@<TRIPOS>MOLECULE
ASD01820066
  94   99    0    0    0
SMALL
NO_CHARGES


@<TRIPOS>ATOM
   1 C1            -0.0167     1.3781     0.0096 C.ar    
   2 C2             0.0021    -0.0041     0.0020 C.ar    
   3 C3             1.2063    -0.6904    -0.0127 C.ar    
   4 C4             2.3989     0.0151    -0.0203 C.ar    
   5 C5             2.3798     1.4244    -0.0130 C.ar    
   6 C6             1.1684     2.0970     0.0022 C.ar    
   7 C7             3.8260    -0.3700    -0.0355 C.2     
   8 N8             4.5720     0.7494    -0.0368 N.am    
   9 C9             3.7959     1.8481    -0.0241 C.2     
  10 O10            4.1923     2.9960    -0.0228 O.2     
  11 O11            4.2534    -1.5068    -0.0446 O.2     
  12 C12            8.0638     0.8038    -1.5099 C.3     
  13 O13            8.5282     0.8166    -2.8613 O.3     
  14 N14            9.9386     0.8363    -2.9855 N.2     
  15 C15           10.4843     0.8494    -4.1574 C.2     
  16 C16           11.9557     0.8700    -4.2870 C.ar    
  17 C17           12.5670     0.8843    -5.5461 C.ar    
  18 C18           13.9448     0.9033    -5.6205 C.ar    
  19 N19           14.6823     0.9080    -4.5270 N.ar    
  20 C20           14.1473     0.8945    -3.3214 C.ar    
  21 C21           12.7776     0.8815    -3.1539 C.ar    
  22 C22           16.1415     0.9284    -4.6554 C.3     
  23 C23           16.6300     2.3778    -4.6932 C.3     
  24 C24           18.1539     2.3991    -4.8273 C.3     
  25 N25           22.1141     5.3395    -5.1654 N.ar    
  26 C26           22.6491     5.3526    -6.3710 C.ar    
  27 C27           24.0185     5.3777    -6.5384 C.ar    
  28 C28           24.8404     5.3892    -5.4054 C.ar    
  29 C29           24.2292     5.3746    -4.1462 C.ar    
  30 C30           22.8515     5.3497    -4.0718 C.ar    
  31 C31           26.3118     5.4155    -5.5349 C.2     
  32 N32           27.0538     5.4258    -4.4763 N.2     
  33 O33           28.4641     5.4511    -4.6004 O.3     
  34 C34           29.1575     5.4600    -3.3509 C.3     
  35 N35           32.8529     5.5231    -2.5105 N.am    
  36 C36           33.5838     6.6457    -2.6339 C.2     
  37 C37           34.9938     6.2667    -2.8647 C.ar    
  38 C38           35.0193     4.8574    -2.8647 C.ar    
  39 C39           33.6239     4.4277    -2.6340 C.2     
  40 C40           36.1674     6.9771    -3.0593 C.ar    
  41 C41           37.3590     6.2959    -3.2528 C.ar    
  42 C42           37.3840     4.9138    -3.2529 C.ar    
  43 C43           36.2178     4.1899    -3.0598 C.ar    
  44 O44           33.1566     7.7806    -2.5674 O.2     
  45 O45           33.2381     3.2780    -2.5672 O.2     
  46 C46           18.6424     3.8485    -4.8651 C.3     
  47 C47           20.1664     3.8698    -4.9992 C.3     
  48 C48           20.6549     5.3192    -5.0369 C.3     
  49 C49            6.5340     0.7830    -1.4966 C.3     
  50 C50            6.0368     0.7693    -0.0497 C.3     
  51 C51           30.6660     5.4873    -3.6050 C.3     
  52 C52           31.4084     5.4969    -2.2672 C.3     
  53 H53           -0.9613     1.9015     0.0169 H       
  54 H54           -0.9280    -0.5530     0.0079 H       
  55 H55            1.2149    -1.7703    -0.0179 H       
  56 H56            1.1477     3.1767     0.0074 H       
  57 H57            8.4437    -0.0835    -1.0036 H       
  58 H58            8.4196     1.6962    -0.9950 H       
  59 H59            9.8643     0.8452    -5.0418 H       
  60 H60           11.9694     0.8802    -6.4457 H       
  61 H61           14.4258     0.9141    -6.5874 H       
  62 H62           14.7899     0.8983    -2.4534 H       
  63 H63           12.3465     0.8704    -2.1638 H       
  64 H64           16.5884     0.4164    -3.8032 H       
  65 H65           16.4323     0.4229    -5.5763 H       
  66 H66           16.1830     2.8898    -5.5454 H       
  67 H67           16.3392     2.8833    -3.7723 H       
  68 H68           18.6009     1.8871    -3.9751 H       
  69 H69           18.4447     1.8936    -5.7482 H       
  70 H70           22.0065     5.3432    -7.2389 H       
  71 H71           24.4497     5.3879    -7.5286 H       
  72 H72           24.8267     5.3828    -3.2466 H       
  73 H73           22.3705     5.3383    -3.1049 H       
  74 H74           26.7676     5.4262    -6.5139 H       
  75 H75           28.8689     6.3436    -2.7816 H       
  76 H76           28.9003     4.5639    -2.7862 H       
  77 H77           36.1538     8.0570    -3.0606 H       
  78 H78           38.2742     6.8488    -3.4050 H       
  79 H79           38.3186     4.3944    -3.4047 H       
  80 H80           36.2433     3.1102    -3.0609 H       
  81 H81           18.1955     4.3604    -5.7173 H       
  82 H82           18.3517     4.3540    -3.9442 H       
  83 H83           20.6133     3.3578    -4.1470 H       
  84 H84           20.4571     3.3643    -5.9201 H       
  85 H85           20.3641     5.8247    -4.1161 H       
  86 H86           20.2079     5.8311    -5.8891 H       
  87 H87            6.1541     1.6704    -2.0029 H       
  88 H88            6.1783    -0.1094    -2.0115 H       
  89 H89            6.3926     1.6617     0.4652 H       
  90 H90            6.4167    -0.1181     0.4567 H       
  91 H91           30.9547     4.6038    -4.1744 H       
  92 H92           30.9232     6.3835    -4.1697 H       
  93 H93           31.1513     4.6008    -1.7025 H       
  94 H94           31.1198     6.3804    -1.6978 H       
@<TRIPOS>BOND
   1    1    2 ar
   2    1    6 ar
   3    1   53 1
   4    2    3 ar
   5    2   54 1
   6    3    4 ar
   7    3   55 1
   8    4    5 ar
   9    4    7 1
  10    5    6 ar
  11    5    9 1
  12    6   56 1
  13    7    8 am
  14    7   11 2
  15    8    9 am
  16    8   50 1
  17    9   10 2
  18   12   13 1
  19   12   49 1
  20   12   57 1
  21   12   58 1
  22   13   14 1
  23   14   15 2
  24   15   16 1
  25   15   59 1
  26   16   17 ar
  27   16   21 ar
  28   17   18 ar
  29   17   60 1
  30   18   19 ar
  31   18   61 1
  32   19   20 ar
  33   19   22 1
  34   20   21 ar
  35   20   62 1
  36   21   63 1
  37   22   23 1
  38   22   64 1
  39   22   65 1
  40   23   24 1
  41   23   66 1
  42   23   67 1
  43   24   46 1
  44   24   68 1
  45   24   69 1
  46   25   26 ar
  47   25   30 ar
  48   25   48 1
  49   26   27 ar
  50   26   70 1
  51   27   28 ar
  52   27   71 1
  53   28   29 ar
  54   28   31 1
  55   29   30 ar
  56   29   72 1
  57   30   73 1
  58   31   32 2
  59   31   74 1
  60   32   33 1
  61   33   34 1
  62   34   51 1
  63   34   75 1
  64   34   76 1
  65   35   36 am
  66   35   39 am
  67   35   52 1
  68   36   37 1
  69   36   44 2
  70   37   38 ar
  71   37   40 ar
  72   38   39 1
  73   38   43 ar
  74   39   45 2
  75   40   41 ar
  76   40   77 1
  77   41   42 ar
  78   41   78 1
  79   42   43 ar
  80   42   79 1
  81   43   80 1
  82   46   47 1
  83   46   81 1
  84   46   82 1
  85   47   48 1
  86   47   83 1
  87   47   84 1
  88   48   85 1
  89   48   86 1
  90   49   50 1
  91   49   87 1
  92   49   88 1
  93   50   89 1
  94   50   90 1
  95   51   52 1
  96   51   91 1
  97   51   92 1
  98   52   93 1
  99   52   94 1

#	End of record

