#	Name: ASD00100134
#	Creating user name:	WinNT
#	Creation time:	15. 06. 2019 18:30

#	Modifying user name:	WinNT
#	Modification time:	15. 06. 2019 18:30

#	Program:	/corina/corina34_cracker 3.40 0067  02.08.2006

@<TRIPOS>MOLECULE
ASD00100134
  38   40    0    0    0
SMALL
NO_CHARGES


@<TRIPOS>ATOM
   1 N1            -0.0340     1.3985    -0.0286 N.pl3   
   2 C2            -0.0189     0.0182    -0.1336 C.2     
   3 N3             1.0408    -0.7185    -0.3620 N.2     
   4 C4             0.6748    -2.0244    -0.3985 C.2     
   5 C5            -0.6626    -2.0885    -0.1838 C.2     
   6 N6            -1.1010    -0.7980    -0.0109 N.pl3   
   7 C7             1.5776    -3.1779    -0.6327 C.ar    
   8 C8             2.9397    -2.9686    -0.8411 C.ar    
   9 C9             3.7755    -4.0450    -1.0580 C.ar    
  10 C10            3.2630    -5.3310    -1.0694 C.ar    
  11 C11            1.9106    -5.5441    -0.8635 C.ar    
  12 C12            1.0675    -4.4749    -0.6395 C.ar    
  13 Cl13           4.3195    -6.6809    -1.3435 Cl      
  14 C14           -2.4793    -0.3778     0.2534 C.3     
  15 C15           -3.3875    -1.5797     0.2126 C.ar    
  16 C16           -3.6330    -2.3011     1.3665 C.ar    
  17 C17           -4.4668    -3.4046     1.3289 C.ar    
  18 C18           -5.0560    -3.7883     0.1383 C.ar    
  19 C19           -4.8132    -3.0709    -1.0168 C.ar    
  20 C20           -3.9823    -1.9600    -0.9811 C.ar    
  21 O21           -3.7470    -1.2495    -2.1154 O.3     
  22 C22           -4.3932    -1.6988    -3.3081 C.3     
  23 Cl23          -2.8944    -1.8223     2.8628 Cl      
  24 H24            0.7985     1.8959    -0.0520 H       
  25 H25           -0.8774     1.8687     0.0643 H       
  26 H26           -1.2668    -2.9831    -0.1508 H       
  27 H27            3.3404    -1.9657    -0.8330 H       
  28 H28            4.8311    -3.8839    -1.2196 H       
  29 H29            1.5156    -6.5493    -0.8737 H       
  30 H30            0.0135    -4.6426    -0.4741 H       
  31 H31           -2.5351     0.0866     1.2380 H       
  32 H32           -2.7921     0.3399    -0.5051 H       
  33 H33           -4.6575    -3.9674     2.2308 H       
  34 H34           -5.7065    -4.6500     0.1115 H       
  35 H35           -5.2736    -3.3715    -1.9463 H       
  36 H36           -4.0776    -2.7182    -3.5304 H       
  37 H37           -5.4737    -1.6756    -3.1668 H       
  38 H38           -4.1210    -1.0454    -4.1370 H       
@<TRIPOS>BOND
   1    1    2 1
   2    1   24 1
   3    1   25 1
   4    2    3 2
   5    2    6 1
   6    3    4 1
   7    4    5 2
   8    4    7 1
   9    5    6 1
  10    5   26 1
  11    6   14 1
  12    7    8 ar
  13    7   12 ar
  14    8    9 ar
  15    8   27 1
  16    9   10 ar
  17    9   28 1
  18   10   11 ar
  19   10   13 1
  20   11   12 ar
  21   11   29 1
  22   12   30 1
  23   14   15 1
  24   14   31 1
  25   14   32 1
  26   15   16 ar
  27   15   20 ar
  28   16   17 ar
  29   16   23 1
  30   17   18 ar
  31   17   33 1
  32   18   19 ar
  33   18   34 1
  34   19   20 ar
  35   19   35 1
  36   20   21 1
  37   21   22 1
  38   22   36 1
  39   22   37 1
  40   22   38 1

#	End of record

