#	Name: ASD01412033
#	Creating user name:	WinNT
#	Creation time:	15. 06. 2019 19:19

#	Modifying user name:	WinNT
#	Modification time:	15. 06. 2019 19:19

#	Program:	/corina/corina34_cracker 3.40 0067  02.08.2006

@<TRIPOS>MOLECULE
ASD01412033
  83   87    0    0    0
SMALL
NO_CHARGES


@<TRIPOS>ATOM
   1 C1            -1.1720     3.2495    -0.6275 C.ar    
   2 C2            -0.9745     1.9108    -1.0233 C.ar    
   3 C3            -2.0428     1.0032    -0.9797 C.ar    
   4 C4            -3.2690     1.4144    -0.5556 C.ar    
   5 C5            -3.4748     2.7444    -0.1604 C.ar    
   6 C6            -2.4227     3.6581    -0.1928 C.ar    
   7 N7             0.0360     3.9016    -0.7727 N.pl3   
   8 C8             0.9676     3.0074    -1.2443 C.2     
   9 C9             0.3832     1.7926    -1.4055 C.2     
  10 C10            1.0596     0.5412    -1.9030 C.3     
  11 C11            0.9725    -0.5464    -0.8304 C.3     
  12 C12            1.6592    -1.8169    -1.3354 C.3     
  13 C13            0.9639    -2.3004    -2.6097 C.3     
  14 C14            1.0511    -1.2128    -3.6822 C.3     
  15 C15            0.3643     0.0577    -3.1772 C.3     
  16 C16           -4.8092     3.1768     0.2961 C.2     
  17 O17           -4.9905     4.3292     0.6393 O.2     
  18 N18           -5.8275     2.2946     0.3328 N.am    
  19 C19           -7.1527     2.7241     0.7862 C.3     
  20 C20           -8.1046     1.5570     0.7325 C.2     
  21 C21           -7.0578     3.2390     2.2238 C.3     
  22 C22           -7.6653     3.8425    -0.1233 C.3     
  23 C23           -8.8161    -0.4853    -0.2494 C.ar    
  24 O24           -8.9745     1.4449     1.5701 O.2     
  25 C25           -9.1914    -1.0737     0.9547 C.ar    
  26 C26          -10.0115    -2.1788     0.9568 C.ar    
  27 C27          -10.4687    -2.7108    -0.2549 C.ar    
  28 C28          -10.0889    -2.1153    -1.4638 C.ar    
  29 C29           -9.2681    -1.0107    -1.4562 C.ar    
  30 C30          -11.3441    -3.8910    -0.2579 C.2     
  31 C31          -12.3916    -3.9573     0.5929 C.2     
  32 N32           -7.9892     0.6378    -0.2464 N.am    
  33 C33            0.2842     5.3141    -0.4738 C.3     
  34 C34            2.3835     3.3197    -1.5312 C.ar    
  35 C35            2.7271     4.4859    -2.2298 C.ar    
  36 C36            4.0621     4.7351    -2.4736 C.ar    
  37 C37            5.0174     3.8277    -2.0218 C.ar    
  38 N38            4.6600     2.7345    -1.3644 N.ar    
  39 C39            3.3970     2.4620    -1.1062 C.ar    
  40 N40            6.3626     4.0720    -2.2642 N.pl3   
  41 C41            4.4818     5.9747    -3.2208 C.3     
  42 C42          -12.7896    -2.8059     1.3182 C.2     
  43 O43          -12.2156    -1.7479     1.1427 O.2     
  44 O44          -13.8051    -2.8838     2.2033 O.3     
  45 H45           -1.8925    -0.0224    -1.2830 H       
  46 H46           -4.0889     0.7122    -0.5236 H       
  47 H47           -2.5834     4.6816     0.1120 H       
  48 H48            2.1063     0.7553    -2.1191 H       
  49 H49            1.4678    -0.2020     0.0774 H       
  50 H50           -0.0742    -0.7605    -0.6143 H       
  51 H51            2.7059    -1.6028    -1.5515 H       
  52 H52            1.5971    -2.5918    -0.5713 H       
  53 H53            1.4532    -3.2056    -2.9695 H       
  54 H54           -0.0828    -2.5145    -2.3936 H       
  55 H55            2.0978    -0.9987    -3.8984 H       
  56 H56            0.5557    -1.5572    -4.5900 H       
  57 H57           -0.6823    -0.1564    -2.9611 H       
  58 H58            0.4264     0.8325    -3.9414 H       
  59 H59           -5.6829     1.3754     0.0591 H       
  60 H60           -6.3693     4.0832     2.2627 H       
  61 H61           -8.0438     3.5585     2.5612 H       
  62 H62           -6.6927     2.4422     2.8718 H       
  63 H63           -7.7329     3.4757    -1.1475 H       
  64 H64           -8.6513     4.1620     0.2140 H       
  65 H65           -6.9768     4.6867    -0.0845 H       
  66 H66           -8.8382    -0.6626     1.8889 H       
  67 H67          -10.3016    -2.6352     1.8916 H       
  68 H68          -10.4389    -2.5225    -2.4008 H       
  69 H69           -8.9750    -0.5504    -2.3882 H       
  70 H70          -11.1502    -4.7055    -0.9401 H       
  71 H71          -12.9257    -4.8872     0.7204 H       
  72 H72           -7.3310     0.7573    -0.9488 H       
  73 H73            0.5962     5.4162     0.5656 H       
  74 H74            1.0704     5.6912    -1.1279 H       
  75 H75           -0.6293     5.8860    -0.6369 H       
  76 H76            1.9653     5.1722    -2.5689 H       
  77 H77            3.1438     1.5608    -0.5675 H       
  78 H78            6.6315     4.8702    -2.7452 H       
  79 H79            7.0333     3.4445    -1.9525 H       
  80 H80            4.6495     6.7864    -2.5129 H       
  81 H81            5.4025     5.7744    -3.7687 H       
  82 H82            3.6969     6.2600    -3.9213 H       
  83 H83          -14.0037    -2.0487     2.6486 H       
@<TRIPOS>BOND
   1    1    2 ar
   2    1    7 1
   3    1    6 ar
   4    2    3 ar
   5    2    9 1
   6    3    4 ar
   7    3   45 1
   8    4    5 ar
   9    4   46 1
  10    5    6 ar
  11    5   16 1
  12    6   47 1
  13    7    8 1
  14    7   33 1
  15    8    9 2
  16    8   34 1
  17    9   10 1
  18   10   11 1
  19   10   15 1
  20   10   48 1
  21   11   12 1
  22   11   49 1
  23   11   50 1
  24   12   13 1
  25   12   51 1
  26   12   52 1
  27   13   14 1
  28   13   53 1
  29   13   54 1
  30   14   15 1
  31   14   55 1
  32   14   56 1
  33   15   57 1
  34   15   58 1
  35   16   17 2
  36   16   18 am
  37   18   19 1
  38   18   59 1
  39   19   20 1
  40   19   21 1
  41   19   22 1
  42   20   24 2
  43   20   32 am
  44   21   60 1
  45   21   61 1
  46   21   62 1
  47   22   63 1
  48   22   64 1
  49   22   65 1
  50   23   25 ar
  51   23   29 ar
  52   23   32 1
  53   25   26 ar
  54   25   66 1
  55   26   27 ar
  56   26   67 1
  57   27   28 ar
  58   27   30 1
  59   28   29 ar
  60   28   68 1
  61   29   69 1
  62   30   31 2
  63   30   70 1
  64   31   42 1
  65   31   71 1
  66   32   72 1
  67   33   73 1
  68   33   74 1
  69   33   75 1
  70   34   35 ar
  71   34   39 ar
  72   35   36 ar
  73   35   76 1
  74   36   37 ar
  75   36   41 1
  76   37   38 ar
  77   37   40 1
  78   38   39 ar
  79   39   77 1
  80   40   78 1
  81   40   79 1
  82   41   80 1
  83   41   81 1
  84   41   82 1
  85   42   43 2
  86   42   44 1
  87   44   83 1

#	End of record

