#	Name: ASD03621002
#	Creating user name:	WinNT
#	Creation time:	15. 06. 2019 20:43

#	Modifying user name:	WinNT
#	Modification time:	15. 06. 2019 20:43

#	Program:	/corina/corina34_cracker 3.40 0067  02.08.2006

@<TRIPOS>MOLECULE
ASD03621002
  88   91    0    0    0
SMALL
NO_CHARGES


@<TRIPOS>ATOM
   1 C1            -0.7288     2.2158    -0.2193 C.ar    
   2 C2            -0.8281     0.8374    -0.1888 C.ar    
   3 C3             0.3155     0.0633    -0.1264 C.ar    
   4 C4             1.5583     0.6676    -0.0950 C.ar    
   5 C5             1.6576     2.0460    -0.1264 C.ar    
   6 C6             0.5140     2.8202    -0.1874 C.ar    
   7 C7             2.8050    -0.1763    -0.0259 C.3     
   8 C8             3.2743    -0.4943    -1.4223 C.2     
   9 N9             4.3797    -1.2427    -1.6076 N.am    
  10 O10            2.6571    -0.0768    -2.3792 O.2     
  11 C11            4.8359    -1.5519    -2.9650 C.3     
  12 C12            5.6912    -0.4206    -3.4771 C.2     
  13 N13            7.0215    -0.4540    -3.3117 N.am    
  14 C14            7.8264    -1.6120    -2.8879 C.3     
  15 C15            6.9517    -2.6291    -2.1690 C.3     
  16 C16            5.6529    -2.8441    -2.9456 C.3     
  17 O17            5.1749     0.5214    -4.0402 O.2     
  18 C18            7.9610     0.6676    -3.4685 C.3     
  19 C19            9.1696     0.3696    -2.5587 C.3     
  20 C20            8.8574    -1.0016    -1.9121 C.3     
  21 C21            7.3019     1.9546    -3.0439 C.2     
  22 N22            7.9857     3.1143    -3.1059 N.am    
  23 O23            6.1561     1.9467    -2.6464 O.2     
  24 C24            7.3450     4.3654    -2.6932 C.3     
  25 C25            8.0095     5.5241    -3.3909 C.2     
  26 N26            7.5832     6.7823    -3.1631 N.am    
  27 O27            8.9279     5.3245    -4.1575 O.2     
  28 C28            7.4840     4.5343    -1.1789 C.3     
  29 C29            6.7038     3.4264    -0.4685 C.3     
  30 C30            8.2980     7.9162    -3.7543 C.3     
  31 C31            8.6894     8.9029    -2.6524 C.3     
  32 C32            7.3921     8.6173    -4.7685 C.3     
  33 C33            7.1064     7.6838    -5.9165 C.ar    
  34 C34            6.0107     6.8425    -5.8670 C.ar    
  35 C35            5.7486     5.9861    -6.9200 C.ar    
  36 C36            6.5821     5.9714    -8.0228 C.ar    
  37 C37            7.6773     6.8134    -8.0727 C.ar    
  38 C38            7.9369     7.6728    -7.0216 C.ar    
  39 C39            6.8428     3.5952     1.0458 C.3     
  40 N40            6.0957     2.5344     1.7261 N.am    
  41 C41            6.0750     2.4819     3.0727 C.2     
  42 N42            5.3877     1.5059     3.6985 N.am    
  43 O43            6.6763     3.3149     3.7229 O.2     
  44 H44            8.3173    -2.0708    -3.7462 H       
  45 C45            9.6911     8.2556    -1.7312 C.2     
  46 O46           10.1337     7.1621    -1.9924 O.2     
  47 O47           10.0917     8.8940    -0.6204 O.3     
  48 H48           -1.6221     2.8205    -0.2726 H       
  49 H49           -1.7991     0.3652    -0.2133 H       
  50 H50            0.2379    -1.0137    -0.1018 H       
  51 H51            2.6286     2.5182    -0.1012 H       
  52 H52            0.5916     3.8971    -0.2117 H       
  53 H53            3.5850     0.3705     0.5038 H       
  54 H54            2.5872    -1.1035     0.5042 H       
  55 H55            4.8733    -1.5766    -0.8422 H       
  56 H56            3.9725    -1.6786    -3.6180 H       
  57 H57            7.4870    -3.5754    -2.0907 H       
  58 H58            6.7191    -2.2633    -1.1689 H       
  59 H59            5.0716    -3.6323    -2.4672 H       
  60 H60            5.8875    -3.1395    -3.9682 H       
  61 H61            8.2851     0.7395    -4.5067 H       
  62 H62           10.0832     0.3100    -3.1503 H       
  63 H63            9.2641     1.1375    -1.7910 H       
  64 H64            8.4217    -0.8713    -0.9215 H       
  65 H65            9.7547    -1.6186    -1.8625 H       
  66 H66            8.9021     3.1206    -3.4239 H       
  67 H67            6.2885     4.3380    -2.9603 H       
  68 H68            6.8032     6.9369    -2.6077 H       
  69 H69            8.5363     4.4728    -0.9016 H       
  70 H70            7.0865     5.5053    -0.8836 H       
  71 H71            5.6514     3.4879    -0.7458 H       
  72 H72            7.1012     2.4553    -0.7638 H       
  73 H73            9.1964     7.5574    -4.2567 H       
  74 H74            9.1307     9.7927    -3.1015 H       
  75 H75            7.8025     9.1841    -2.0847 H       
  76 H76            6.4556     8.8975    -4.2864 H       
  77 H77            7.8899     9.5119    -5.1429 H       
  78 H78            5.3595     6.8539    -5.0054 H       
  79 H79            4.8930     5.3283    -6.8810 H       
  80 H80            6.3778     5.3018    -8.8452 H       
  81 H81            8.3286     6.8016    -8.9341 H       
  82 H82            8.7925     8.3306    -7.0606 H       
  83 H83            7.8951     3.5337     1.3232 H       
  84 H84            6.4453     4.5663     1.3411 H       
  85 H85            5.6159     1.8698     1.2073 H       
  86 H86            4.9079     0.8414     3.1797 H       
  87 H87            5.3728     1.4681     4.6676 H       
  88 H88           10.7356     8.4389    -0.0606 H       
@<TRIPOS>BOND
   1    1    2 ar
   2    1    6 ar
   3    1   48 1
   4    2    3 ar
   5    2   49 1
   6    3    4 ar
   7    3   50 1
   8    4    5 ar
   9    4    7 1
  10    5    6 ar
  11    5   51 1
  12    6   52 1
  13    7    8 1
  14    7   53 1
  15    7   54 1
  16    8    9 am
  17    8   10 2
  18    9   11 1
  19    9   55 1
  20   11   12 1
  21   11   16 1
  22   11   56 1
  23   12   13 am
  24   12   17 2
  25   13   14 1
  26   13   18 1
  27   14   15 1
  28   14   44 1
  29   14   20 1
  30   15   16 1
  31   15   57 1
  32   15   58 1
  33   16   59 1
  34   16   60 1
  35   18   19 1
  36   18   21 1
  37   18   61 1
  38   19   20 1
  39   19   62 1
  40   19   63 1
  41   20   64 1
  42   20   65 1
  43   21   22 am
  44   21   23 2
  45   22   24 1
  46   22   66 1
  47   24   25 1
  48   24   28 1
  49   24   67 1
  50   25   26 am
  51   25   27 2
  52   26   30 1
  53   26   68 1
  54   28   29 1
  55   28   69 1
  56   28   70 1
  57   29   39 1
  58   29   71 1
  59   29   72 1
  60   30   31 1
  61   30   32 1
  62   30   73 1
  63   31   45 1
  64   31   74 1
  65   31   75 1
  66   32   33 1
  67   32   76 1
  68   32   77 1
  69   33   34 ar
  70   33   38 ar
  71   34   35 ar
  72   34   78 1
  73   35   36 ar
  74   35   79 1
  75   36   37 ar
  76   36   80 1
  77   37   38 ar
  78   37   81 1
  79   38   82 1
  80   39   40 1
  81   39   83 1
  82   39   84 1
  83   40   41 am
  84   40   85 1
  85   41   42 am
  86   41   43 2
  87   42   86 1
  88   42   87 1
  89   45   46 2
  90   45   47 1
  91   47   88 1

#	End of record

