#	Name: ASD02690086
#	Creating user name:	WinNT
#	Creation time:	15. 06. 2019 20:26

#	Modifying user name:	WinNT
#	Modification time:	15. 06. 2019 20:26

#	Program:	/corina/corina34_cracker 3.40 0067  02.08.2006

@<TRIPOS>MOLECULE
ASD02690086
  56   59    0    0    0
SMALL
NO_CHARGES


@<TRIPOS>ATOM
   1 C1            -0.0037     1.4595    -0.1178 C.3     
   2 N2             0.0021    -0.0041     0.0020 N.3     
   3 C3            -1.3562    -0.5483    -0.1275 C.3     
   4 C4            -1.9362    -0.1656    -1.4876 C.3     
   5 C5             1.4362     1.9778    -0.1242 C.3     
   6 C6             2.1311     1.5561     1.1734 C.3     
   7 C7             2.0807     0.0308     1.2976 C.3     
   8 C8            -3.2305    -0.8951    -1.7359 C.ar    
   9 C9             3.5672     2.0121     1.1468 C.2     
  10 C10            4.2903     2.2393     2.4079 C.ar    
  11 N11            3.6728     2.0410     3.5694 N.ar    
  12 C12            0.6221    -0.4312     1.2628 C.3     
  13 C13           -1.3107    -2.0780    -0.0343 C.3     
  14 C14           -2.7434    -2.5969     0.0707 C.3     
  15 C15           -3.5991    -2.0138    -1.0233 C.ar    
  16 C16           -4.8040    -2.6442    -1.3072 C.ar    
  17 C17           -5.6346    -2.1566    -2.2946 C.ar    
  18 C18           -5.2663    -1.0307    -3.0075 C.ar    
  19 O19            4.1267     2.1917     0.0861 O.2     
  20 C20           -4.0697    -0.4041    -2.7280 C.ar    
  21 O21           -0.6895    -2.6133    -1.2046 O.3     
  22 C22            5.6280     2.6579     2.3784 C.ar    
  23 C23            6.2946     2.8668     3.5840 C.ar    
  24 C24            5.6058     2.6516     4.7638 C.ar    
  25 C25            4.2829     2.2320     4.7162 C.ar    
  26 O26            6.2625     2.8556     1.1966 O.3     
  27 C27            7.6251     3.2821     1.2553 C.3     
  28 C28            8.1682     3.4511    -0.1650 C.3     
  29 F29            7.4829     4.4888    -0.8059 F       
  30 H30           -0.4970     1.7459    -1.0467 H       
  31 H31           -0.5413     1.8909     0.7266 H       
  32 H32           -1.9884    -0.1502     0.6663 H       
  33 H33           -2.1190     0.9087    -1.5109 H       
  34 H34           -1.2218    -0.4250    -2.2688 H       
  35 H35            1.9704     1.5576    -0.9763 H       
  36 H36            1.4311     3.0654    -0.1974 H       
  37 H37            1.6208     2.0087     2.0236 H       
  38 H38            2.6251    -0.4201     0.4679 H       
  39 H39            2.5362    -0.2728     2.2402 H       
  40 H40            0.0817     0.0091     2.1007 H       
  41 H41            0.5835    -1.5180     1.3366 H       
  42 H42           -0.7469    -2.3754     0.8499 H       
  43 H43           -2.7395    -3.6833    -0.0166 H       
  44 H44           -3.1573    -2.3161     1.0391 H       
  45 H45           -5.0925    -3.5235    -0.7506 H       
  46 H46           -6.5697    -2.6524    -2.5098 H       
  47 H47           -5.9134    -0.6429    -3.7804 H       
  48 H48           -3.7826     0.4752    -3.2856 H       
  49 H49           -0.6280    -3.5783    -1.2109 H       
  50 H50            7.3254     3.1890     3.5969 H       
  51 H51            6.0942     2.8047     5.7148 H       
  52 H52            3.7457     2.0642     5.6379 H       
  53 H53            7.6855     4.2339     1.7831 H       
  54 H54            8.2172     2.5352     1.7842 H       
  55 H55            9.2309     3.6899    -0.1217 H       
  56 H56            8.0265     2.5243    -0.7209 H       
@<TRIPOS>BOND
   1    1    2 1
   2    1    5 1
   3    1   30 1
   4    1   31 1
   5    2    3 1
   6    2   12 1
   7    3    4 1
   8    3   13 1
   9    3   32 1
  10    4    8 1
  11    4   33 1
  12    4   34 1
  13    5    6 1
  14    5   35 1
  15    5   36 1
  16    6    9 1
  17    6    7 1
  18    6   37 1
  19    7   12 1
  20    7   38 1
  21    7   39 1
  22    8   15 ar
  23    8   20 ar
  24    9   10 1
  25    9   19 2
  26   10   11 ar
  27   10   22 ar
  28   11   25 ar
  29   12   40 1
  30   12   41 1
  31   13   14 1
  32   13   21 1
  33   13   42 1
  34   14   15 1
  35   14   43 1
  36   14   44 1
  37   15   16 ar
  38   16   17 ar
  39   16   45 1
  40   17   18 ar
  41   17   46 1
  42   18   20 ar
  43   18   47 1
  44   20   48 1
  45   21   49 1
  46   22   23 ar
  47   22   26 1
  48   23   24 ar
  49   23   50 1
  50   24   25 ar
  51   24   51 1
  52   25   52 1
  53   26   27 1
  54   27   28 1
  55   27   53 1
  56   27   54 1
  57   28   29 1
  58   28   55 1
  59   28   56 1

#	End of record

