#	Name: ASD01230752
#	Creating user name:	WinNT
#	Creation time:	15. 06. 2019 19:15

#	Modifying user name:	WinNT
#	Modification time:	15. 06. 2019 19:15

#	Program:	/corina/corina34_cracker 3.40 0067  02.08.2006

@<TRIPOS>MOLECULE
ASD01230752
  40   42    0    0    0
SMALL
NO_CHARGES


@<TRIPOS>ATOM
   1 C1            -0.3410     2.0334    -0.4486 C.2     
   2 C2            -0.5359     0.6900    -0.2119 C.2     
   3 C3            -1.8282     0.1599    -0.3291 C.2     
   4 C4            -2.8637     0.9429    -0.6770 C.2     
   5 N5            -2.7240     2.2829    -0.9404 N.pl3   
   6 C6            -1.5004     2.8761    -0.8110 C.2     
   7 C7            -3.9364     2.9915    -1.3591 C.3     
   8 C8            -3.9473     4.4161    -0.7973 C.3     
   9 S9            -2.4327     5.2365    -1.3872 S.o2    
  10 N10           -1.2514     4.1521    -0.9799 N.am    
  11 C11            1.0110     2.6264    -0.3355 C.ar    
  12 C12            2.0215     2.2366    -1.2157 C.ar    
  13 O13           -2.4061     5.2856    -2.8071 O.2     
  14 O14           -2.1437     6.3859    -0.6032 O.2     
  15 C15            1.2760     3.5800     0.6473 C.ar    
  16 C16            2.5366     4.1310     0.7505 C.ar    
  17 C17            3.5414     3.7380    -0.1217 C.ar    
  18 C18            3.2805     2.7918    -1.1068 C.ar    
  19 O19            4.7822     4.2837    -0.0169 O.3     
  20 C20            5.0133     5.1628     1.0857 C.3     
  21 C21            6.5064     5.1810     1.4192 C.3     
  22 C22            4.5559     6.5753     0.7164 C.3     
  23 F23            4.2617     2.4114    -1.9541 F       
  24 H24            0.2945     0.0551     0.0594 H       
  25 H25           -1.9938    -0.8901    -0.1379 H       
  26 H26           -3.8457     0.4998    -0.7528 H       
  27 H27           -3.9702     3.0340    -2.4478 H       
  28 H28           -4.8114     2.4541    -0.9935 H       
  29 H29           -4.8249     4.9516    -1.1596 H       
  30 H30           -3.9530     4.3857     0.2922 H       
  31 H31            1.8188     1.5015    -1.9805 H       
  32 H32            0.4948     3.8872     1.3268 H       
  33 H33            2.7415     4.8696     1.5113 H       
  34 H34            4.4517     4.8140     1.9524 H       
  35 H35            7.0680     5.5298     0.5525 H       
  36 H36            6.6827     5.8515     2.2602 H       
  37 H37            6.8322     4.1747     1.6823 H       
  38 H38            3.4922     6.5623     0.4788 H       
  39 H39            4.7322     7.2459     1.5575 H       
  40 H40            5.1175     6.9241    -0.1503 H       
@<TRIPOS>BOND
   1    1    2 2
   2    1   11 1
   3    1    6 1
   4    2    3 1
   5    2   24 1
   6    3    4 2
   7    3   25 1
   8    4    5 1
   9    4   26 1
  10    5    6 1
  11    5    7 1
  12    6   10 2
  13    7    8 1
  14    7   27 1
  15    7   28 1
  16    8    9 1
  17    8   29 1
  18    8   30 1
  19    9   10 am
  20    9   13 2
  21    9   14 2
  22   11   12 ar
  23   11   15 ar
  24   12   18 ar
  25   12   31 1
  26   15   16 ar
  27   15   32 1
  28   16   17 ar
  29   16   33 1
  30   17   18 ar
  31   17   19 1
  32   18   23 1
  33   19   20 1
  34   20   22 1
  35   20   21 1
  36   20   34 1
  37   21   35 1
  38   21   36 1
  39   21   37 1
  40   22   38 1
  41   22   39 1
  42   22   40 1

#	End of record

