#	Name: ASD00190092
#	Creating user name:	WinNT
#	Creation time:	15. 06. 2019 18:33

#	Modifying user name:	WinNT
#	Modification time:	15. 06. 2019 18:33

#	Program:	/corina/corina34_cracker 3.40 0067  02.08.2006

@<TRIPOS>MOLECULE
ASD00190092
  35   37    0    0    0
SMALL
NO_CHARGES


@<TRIPOS>ATOM
   1 C1            -0.0169     1.3973     0.0097 C.ar    
   2 C2             0.0021    -0.0041     0.0020 C.ar    
   3 N3             1.1791    -0.6332    -0.0126 N.ar    
   4 C4             2.3092     0.0544    -0.0197 C.ar    
   5 N5             2.3190     1.3800    -0.0127 N.ar    
   6 C6             1.1899     2.0715     0.0018 C.ar    
   7 N7             3.5132    -0.6283    -0.0344 N.pl3   
   8 C8            -1.2553    -0.7694     0.0104 C.2     
   9 C9            -1.2242    -2.1135     0.0029 C.2     
  10 C10           -2.4818    -2.8789     0.0113 C.ar    
  11 C11           -2.4505    -4.2774     0.0034 C.ar    
  12 C12           -3.6270    -4.9911     0.0112 C.ar    
  13 C13           -4.8506    -4.3207     0.0265 C.ar    
  14 C14           -4.8839    -2.9258     0.0338 C.ar    
  15 C15           -3.7094    -2.2087     0.0328 C.ar    
  16 C16           -6.1171    -5.0916     0.0344 C.ar    
  17 C17           -7.3499    -4.4325     0.0496 C.ar    
  18 C18           -8.5034    -5.1979     0.0560 C.ar    
  19 C19           -8.4004    -6.5769     0.0472 C.ar    
  20 N20           -7.2227    -7.1711     0.0332 N.ar    
  21 C21           -6.0982    -6.4855     0.0209 C.ar    
  22 H22           -0.9521     1.9376     0.0171 H       
  23 H23            1.2115     3.1513     0.0071 H       
  24 H24            3.5208    -1.5983    -0.0394 H       
  25 H25            4.3495    -0.1368    -0.0397 H       
  26 H26           -2.2028    -0.2512     0.0226 H       
  27 H27           -0.2767    -2.6317    -0.0093 H       
  28 H28           -1.5036    -4.7966    -0.0091 H       
  29 H29           -3.6032    -6.0708     0.0052 H       
  30 H30           -5.8320    -2.4087     0.0449 H       
  31 H31           -3.7356    -1.1290     0.0388 H       
  32 H32           -7.4011    -3.3537     0.0567 H       
  33 H33           -9.4734    -4.7231     0.0681 H       
  34 H34           -9.2984    -7.1769     0.0521 H       
  35 H35           -5.1530    -7.0079     0.0093 H       
@<TRIPOS>BOND
   1    1    2 ar
   2    1    6 ar
   3    1   22 1
   4    2    3 ar
   5    2    8 1
   6    3    4 ar
   7    4    5 ar
   8    4    7 1
   9    5    6 ar
  10    6   23 1
  11    7   24 1
  12    7   25 1
  13    8    9 2
  14    8   26 1
  15    9   10 1
  16    9   27 1
  17   10   11 ar
  18   10   15 ar
  19   11   12 ar
  20   11   28 1
  21   12   13 ar
  22   12   29 1
  23   13   14 ar
  24   13   16 1
  25   14   15 ar
  26   14   30 1
  27   15   31 1
  28   16   17 ar
  29   16   21 ar
  30   17   18 ar
  31   17   32 1
  32   18   19 ar
  33   18   33 1
  34   19   20 ar
  35   19   34 1
  36   20   21 ar
  37   21   35 1

#	End of record

