#	Name: ASD01883306
#	Creating user name:	WinNT
#	Creation time:	15. 06. 2019 19:46

#	Modifying user name:	WinNT
#	Modification time:	15. 06. 2019 19:46

#	Program:	/corina/corina34_cracker 3.40 0067  02.08.2006

@<TRIPOS>MOLECULE
ASD01883306
  44   45    0    0    0
SMALL
NO_CHARGES


@<TRIPOS>ATOM
   1 N1            -0.0162     1.3424     0.0094 N.am    
   2 C2             0.0021    -0.0041     0.0020 C.2     
   3 C3            -1.2200    -0.7260     0.0103 C.2     
   4 C4            -2.4186    -0.0172     0.0260 C.2     
   5 C5            -2.3789     1.3778     0.0331 C.2     
   6 C6            -1.1865     2.0253     0.0299 C.2     
   7 O7             1.0648    -0.6011    -0.0121 O.2     
   8 C8            -1.2204    -2.1580     0.0021 C.1     
   9 N9            -1.2207    -3.2939    -0.0043 N.1     
  10 C10            1.2492     2.0805     0.0013 C.3     
  11 C11            1.6760     2.3452    -1.4439 C.3     
  12 C12            2.9975     3.1162    -1.4524 C.3     
  13 C13            3.4877     3.2723    -2.8933 C.3     
  14 C14            2.7852     4.4991    -0.8333 C.3     
  15 C15           -3.7381    -0.7452     0.0347 C.3     
  16 C16           -4.2313    -0.8897     1.4758 C.3     
  17 C17           -5.5508    -1.6177     1.4845 C.ar    
  18 C18           -5.5789    -2.9963     1.5813 C.ar    
  19 C19           -6.7892    -3.6641     1.5892 C.ar    
  20 C20           -7.9714    -2.9532     1.5008 C.ar    
  21 C21           -7.9434    -1.5745     1.4050 C.ar    
  22 C22           -6.7332    -0.9064     1.4014 C.ar    
  23 H23           -3.2991     1.9430     0.0453 H       
  24 H24           -1.1699     3.1052     0.0358 H       
  25 H25            1.1196     3.0296     0.5215 H       
  26 H26            2.0163     1.4921     0.5047 H       
  27 H27            1.8056     1.3962    -1.9641 H       
  28 H28            0.9088     2.9337    -1.9473 H       
  29 H29            3.7411     2.5690    -0.8730 H       
  30 H30            2.7441     3.8195    -3.4728 H       
  31 H31            4.4292     3.8215    -2.8994 H       
  32 H32            3.6389     2.2870    -3.3344 H       
  33 H33            2.4360     4.3879     0.1933 H       
  34 H34            3.7267     5.0483    -0.8393 H       
  35 H35            2.0416     5.0463    -1.4127 H       
  36 H36           -4.4685    -0.1803    -0.5445 H       
  37 H37           -3.6105    -1.7337    -0.4065 H       
  38 H38           -3.5009    -1.4545     2.0549 H       
  39 H39           -4.3589     0.0989     1.9170 H       
  40 H40           -4.6552    -3.5518     1.6503 H       
  41 H41           -6.8111    -4.7413     1.6641 H       
  42 H42           -8.9170    -3.4750     1.5063 H       
  43 H43           -8.8670    -1.0191     1.3356 H       
  44 H44           -6.7113     0.1708     1.3265 H       
@<TRIPOS>BOND
   1    1    2 am
   2    1   10 1
   3    1    6 1
   4    2    3 1
   5    2    7 2
   6    3    4 2
   7    3    8 1
   8    4    5 1
   9    4   15 1
  10    5    6 2
  11    5   23 1
  12    6   24 1
  13    8    9 3
  14   10   11 1
  15   10   25 1
  16   10   26 1
  17   11   12 1
  18   11   27 1
  19   11   28 1
  20   12   13 1
  21   12   14 1
  22   12   29 1
  23   13   30 1
  24   13   31 1
  25   13   32 1
  26   14   33 1
  27   14   34 1
  28   14   35 1
  29   15   16 1
  30   15   36 1
  31   15   37 1
  32   16   17 1
  33   16   38 1
  34   16   39 1
  35   17   18 ar
  36   17   22 ar
  37   18   19 ar
  38   18   40 1
  39   19   20 ar
  40   19   41 1
  41   20   21 ar
  42   20   42 1
  43   21   22 ar
  44   21   43 1
  45   22   44 1

#	End of record

