#	Name: ASD03331690
#	Creating user name:	WinNT
#	Creation time:	15. 06. 2019 20:39

#	Modifying user name:	WinNT
#	Modification time:	15. 06. 2019 20:39

#	Program:	/corina/corina34_cracker 3.40 0067  02.08.2006

@<TRIPOS>MOLECULE
ASD03331690
  44   47    0    0    0
SMALL
NO_CHARGES


@<TRIPOS>ATOM
   1 C1            -0.0166     1.3732     0.0096 C.ar    
   2 C2             0.0021    -0.0041     0.0020 C.ar    
   3 C3             1.2100    -0.6897    -0.0132 C.ar    
   4 C4             2.4058    -0.0059    -0.0209 C.ar    
   5 C5             1.1873     2.0801     0.0019 C.ar    
   6 C6             1.5312     3.5041     0.0063 C.2     
   7 C7             2.4102     1.3847    -0.0135 C.ar    
   8 N8             3.4137     2.3285    -0.0176 N.pl3   
   9 C9             2.8710     3.5845    -0.0061 C.2     
  10 S10            3.7943     5.0852    -0.0074 S.o2    
  11 O11            2.9454     6.0790     0.5502 O.2     
  12 O12            5.0741     4.7694     0.5233 O.2     
  13 N13            4.0361     5.5107    -1.5894 N.am    
  14 C14            2.8938     5.8659    -2.4352 C.3     
  15 C15            4.1440     6.4351    -5.9501 C.ar    
  16 C16            3.6927     5.8093    -4.8058 C.ar    
  17 C17            3.3867     6.5548    -3.6816 C.ar    
  18 C18            3.5311     7.9304    -3.6973 C.ar    
  19 C19            3.9812     8.5666    -4.8364 C.ar    
  20 C20            4.2909     7.8205    -5.9717 C.ar    
  21 C21            4.7762     8.4989    -7.1990 C.ar    
  22 C22            4.9230     9.8843    -7.2206 C.ar    
  23 C23            5.3748    10.5101    -8.3649 C.ar    
  24 C24            5.6811     9.7645    -9.4889 C.ar    
  25 C25            5.5368     8.3889    -9.4732 C.ar    
  26 C26            5.0922     7.7522    -8.3322 C.ar    
  27 Cl27          -1.4921    -0.8878     0.0121 Cl      
  28 H28           -0.9575     1.9034     0.0169 H       
  29 H29            1.2117    -1.7697    -0.0187 H       
  30 H30            3.3391    -0.5493    -0.0324 H       
  31 H31            0.8380     4.3323     0.0173 H       
  32 H32            4.3635     2.1320    -0.0277 H       
  33 H33            4.9340     5.5247    -1.9561 H       
  34 H34            2.3505     4.9620    -2.7104 H       
  35 H35            2.2309     6.5359    -1.8877 H       
  36 H36            4.3865     5.8516    -6.8260 H       
  37 H37            3.5785     4.7355    -4.7879 H       
  38 H38            3.2907     8.5077    -2.8168 H       
  39 H39            4.0929     9.6408    -4.8479 H       
  40 H40            4.6835    10.4675    -6.3438 H       
  41 H41            5.4890    11.5839    -8.3827 H       
  42 H42            6.0340    10.2582   -10.3823 H       
  43 H43            5.7771     7.8116   -10.3538 H       
  44 H44            4.9848     6.6776    -8.3193 H       
@<TRIPOS>BOND
   1    1    2 ar
   2    1    5 ar
   3    1   28 1
   4    2    3 ar
   5    2   27 1
   6    3    4 ar
   7    3   29 1
   8    4    7 ar
   9    4   30 1
  10    5    7 ar
  11    5    6 1
  12    6    9 2
  13    6   31 1
  14    7    8 1
  15    8    9 1
  16    8   32 1
  17    9   10 1
  18   10   11 2
  19   10   12 2
  20   10   13 am
  21   13   14 1
  22   13   33 1
  23   14   17 1
  24   14   34 1
  25   14   35 1
  26   15   16 ar
  27   15   20 ar
  28   15   36 1
  29   16   17 ar
  30   16   37 1
  31   17   18 ar
  32   18   19 ar
  33   18   38 1
  34   19   20 ar
  35   19   39 1
  36   20   21 1
  37   21   22 ar
  38   21   26 ar
  39   22   23 ar
  40   22   40 1
  41   23   24 ar
  42   23   41 1
  43   24   25 ar
  44   24   42 1
  45   25   26 ar
  46   25   43 1
  47   26   44 1

#	End of record

