#	Name: ASD06600067
#	Creating user name:	WinNT
#	Creation time:	15. 06. 2019 21:07

#	Modifying user name:	WinNT
#	Modification time:	15. 06. 2019 21:07

#	Program:	/corina/corina34_cracker 3.40 0067  02.08.2006

@<TRIPOS>MOLECULE
ASD06600067
 282  282    0    0    0
SMALL
NO_CHARGES


@<TRIPOS>ATOM
   1 C1             2.1436     0.6386    -4.7055 C.2     
   2 O2             2.0498    -0.5490    -4.4777 O.2     
   3 N3             4.3031     0.5496    -3.5947 N.3     
   4 C4             3.4587     1.3443    -4.4967 C.3     
   5 C5             4.1669     1.5121    -5.8425 C.3     
   6 C6             5.4409     2.3370    -5.6491 C.3     
   7 C7             6.1490     2.5047    -6.9949 C.3     
   8 N8             7.3689     3.2946    -6.8097 N.pl3   
   9 C9             8.1753     3.5767    -7.8868 C.2     
  10 N10            7.8545     3.1415    -9.0728 N.2     
  11 N11            9.3201     4.3180    -7.7130 N.pl3   
  12 C12           -0.6709     0.0405    -4.0578 C.2     
  13 O13            0.1212    -0.1513    -3.1596 O.2     
  14 N14            1.0733     1.3259    -5.1509 N.am    
  15 C15           -0.2035     0.6386    -5.3597 C.3     
  16 C16           -0.0211    -0.4729    -6.3952 C.3     
  17 C17            0.3323     0.1449    -7.7496 C.3     
  18 C18            0.5148    -0.9666    -8.7850 C.3     
  19 N19            0.8532    -0.3750   -10.0819 N.pl3   
  20 C20            1.0653    -1.1846   -11.1721 C.2     
  21 N21            1.0648    -2.4789   -11.0317 N.2     
  22 N22            1.2789    -0.6249   -12.4171 N.am    
  23 C23           -1.8962    -2.1883    -2.3758 C.2     
  24 O24           -1.0160    -2.6056    -3.0982 O.2     
  25 N25           -1.9691    -0.2813    -3.8916 N.am    
  26 C26           -2.5578    -0.8687    -2.6792 C.3     
  27 C27           -4.0598    -1.0866    -2.9586 C.3     
  28 C28           -4.1217    -1.1347    -4.5082 C.3     
  29 C29           -3.0351    -0.0967    -4.8931 C.3     
  30 C30           -2.5815    -5.0493    -0.2060 C.2     
  31 O31           -3.6818    -4.6330     0.0892 O.2     
  32 N32           -2.2827    -2.9047    -1.3016 N.am    
  33 C33           -1.6396    -4.1875    -1.0066 C.3     
  34 C34           -0.3618    -3.9440    -0.2012 C.3     
  35 C35            0.6440    -3.1751    -1.0604 C.3     
  36 C36            1.9026    -2.9354    -0.2670 C.2     
  37 O37            1.9869    -3.3397     0.8733 O.2     
  38 N38            2.9346    -2.2717    -0.8247 N.am    
  39 C39           -2.3239    -8.1147     1.7689 C.2     
  40 O40           -1.1130    -8.1226     1.7015 O.2     
  41 N41           -2.2013    -6.2827     0.1821 N.am    
  42 C42           -3.1170    -7.1205     0.9604 C.3     
  43 C43           -4.0557    -7.8681     0.0113 C.3     
  44 C44           -4.9486    -6.8632    -0.7194 C.3     
  45 C45           -5.8873    -7.6109    -1.6685 C.3     
  46 N46           -6.7422    -6.6486    -2.3681 N.pl3   
  47 C47           -7.6725    -7.0907    -3.2787 C.2     
  48 N48           -7.7938    -8.3659    -3.5197 N.2     
  49 N49           -8.4748    -6.1877    -3.9353 N.pl3   
  50 C50           -3.0460   -11.1652     3.6493 C.2     
  51 O51           -4.1881   -11.2113     3.2440 O.2     
  52 N52           -2.9602    -8.9950     2.5668 N.am    
  53 C53           -2.1892    -9.9615     3.3527 C.3     
  54 C54           -1.7475    -9.3137     4.6665 C.3     
  55 C55           -0.7778    -8.1681     4.3696 C.3     
  56 C56           -0.3427    -7.5300     5.6637 C.2     
  57 O57           -0.7664    -7.9502     6.7195 O.2     
  58 N58            0.5173    -6.4924     5.6477 N.am    
  59 C59           -2.8740   -14.0392     5.9018 C.2     
  60 O60           -1.9150   -13.5895     6.4926 O.2     
  61 N61           -2.5429   -12.1906     4.3648 N.am    
  62 C62           -3.3758   -13.3608     4.6532 C.3     
  63 C63           -3.3059   -14.3385     3.4783 C.3     
  64 C64           -3.9301   -13.6927     2.2396 C.3     
  65 C65           -3.8602   -14.6704     1.0648 C.3     
  66 C66           -4.4843   -14.0246    -0.1739 C.3     
  67 N67           -4.4172   -14.9633    -1.3018 N.3     
  68 C68           -3.3987   -17.2591     7.5510 C.2     
  69 O69           -4.0264   -17.7009     6.6120 O.2     
  70 N70           -3.4908   -15.1457     6.3618 N.am    
  71 C71           -3.0030   -15.8052     7.5756 C.3     
  72 C72           -3.6162   -15.1305     8.8042 C.3     
  73 C73           -3.5111   -20.0070     9.9593 C.2     
  74 O74           -3.0067   -19.3793    10.8662 O.2     
  75 N75           -3.0550   -18.0684     8.5725 N.am    
  76 C76           -3.4397   -19.4818     8.5485 C.3     
  77 C77           -2.4002   -20.2800     7.7592 C.3     
  78 C78           -2.3973   -19.8130     6.3022 C.3     
  79 C79           -1.0149   -20.0566     8.3691 C.3     
  80 C80           -4.3015   -23.2311    11.4900 C.2     
  81 O81           -4.4406   -23.7713    10.4131 O.2     
  82 N82           -4.1353   -21.1742    10.2131 N.am    
  83 C83           -4.1131   -21.7378    11.5651 C.3     
  84 C84           -5.2431   -21.1223    12.3929 C.3     
  85 C85           -4.9851   -19.6251    12.5743 C.3     
  86 C86           -6.1151   -19.0095    13.4020 C.3     
  87 N87           -5.8681   -17.5760    13.5757 N.pl3   
  88 C88           -6.7558   -16.8071    14.2905 C.2     
  89 N89           -7.8172   -17.3537    14.8137 N.2     
  90 N90           -6.5241   -15.4618    14.4535 N.pl3   
  91 C91           -5.0784   -25.9171    13.8447 C.2     
  92 O92           -5.0342   -25.2201    14.8363 O.2     
  93 N93           -4.3154   -23.9663    12.6195 N.am    
  94 C94           -4.4986   -25.4180    12.5464 C.3     
  95 C95           -3.1468   -26.0908    12.2995 C.3     
  96 C96           -2.6137   -25.6757    10.9268 C.3     
  97 C97           -2.1567   -25.6588    13.3830 C.3     
  98 C98           -6.3059   -29.0856    15.1927 C.2     
  99 O99           -5.8031   -29.7267    14.2943 O.2     
 100 N100          -5.6462   -27.1380    13.9040 N.am    
 101 C101          -6.3067   -27.5797    15.1348 C.3     
 102 C102          -7.7491   -27.0695    15.1509 C.3     
 103 C103          -8.0465   -31.7167    15.5331 C.2     
 104 O104          -8.8120   -30.9520    14.9954 O.2     
 105 N105          -6.8639   -29.7199    16.2428 N.am    
 106 C106          -6.8631   -31.1838    16.2991 C.3     
 107 C107          -6.9529   -31.6382    17.7573 C.3     
 108 C108          -6.8267   -33.1614    17.8256 C.3     
 109 C109          -6.7913   -33.6051    19.2894 C.3     
 110 C110          -8.3007   -31.2114    18.3424 C.3     
 111 O111          -8.2501   -33.0407    15.4483 O.3     
 112 C112           1.1743     0.7085   -12.5834 C.2     
 113 O113           0.9988     1.4273   -11.6228 O.2     
 114 C114           0.9368    16.1910   -23.1392 C.3     
 115 C115           0.8342    15.5844   -21.7383 C.3     
 116 C116           0.9852    14.0645   -21.8283 C.3     
 117 C117           0.8825    13.4580   -20.4275 C.3     
 118 C118           1.0335    11.9381   -20.5175 C.3     
 119 C119           0.9309    11.3315   -19.1166 C.3     
 120 C120           1.0819     9.8117   -19.2066 C.3     
 121 C121           0.9793     9.2051   -17.8058 C.3     
 122 C122           1.1303     7.6852   -17.8958 C.3     
 123 C123           1.0276     7.0786   -16.4949 C.3     
 124 C124           1.1786     5.5588   -16.5849 C.3     
 125 C125           1.0760     4.9522   -15.1840 C.3     
 126 C126           1.2270     3.4323   -15.2741 C.3     
 127 C127           1.1243     2.8258   -13.8732 C.3     
 128 C128           1.2753     1.3059   -13.9632 C.3     
 129 H129           4.4843    -0.3647    -3.9811 H       
 130 H130           5.1647     1.0319    -3.3875 H       
 131 H131           3.2788     2.3249    -4.0560 H       
 132 H132           4.4261     0.5314    -6.2414 H       
 133 H133           3.5046     2.0246    -6.5401 H       
 134 H134           5.1816     3.3177    -5.2501 H       
 135 H135           6.1032     1.8244    -4.9514 H       
 136 H136           6.4082     1.5240    -7.3938 H       
 137 H137           5.4867     3.0173    -7.6925 H       
 138 H138           7.6076     3.6185    -5.9271 H       
 139 H139           8.4234     3.3405    -9.8328 H       
 140 H140           9.5588     4.6419    -6.8304 H       
 141 H141           9.8890     4.5170    -8.4730 H       
 142 H142           1.1483     2.2757    -5.3331 H       
 143 H143          -0.9455     1.3517    -5.7190 H       
 144 H144           0.7830    -1.1367    -6.0777 H       
 145 H145          -0.9469    -1.0409    -6.4854 H       
 146 H146          -0.4718     0.8088    -8.0670 H       
 147 H147           1.2582     0.7130    -7.6593 H       
 148 H148           1.3189    -1.6304    -8.4676 H       
 149 H149          -0.4111    -1.5346    -8.8753 H       
 150 H150           0.9275     0.5880   -10.1711 H       
 151 H151           1.1413    -3.0513   -11.8111 H       
 152 H152           1.5042    -1.1915   -13.1714 H       
 153 H153          -2.4299    -0.1879    -1.8377 H       
 154 H154          -4.3991    -2.0295    -2.5296 H       
 155 H155          -4.6483    -0.2532    -2.5748 H       
 156 H156          -3.8669    -2.1277    -4.8787 H       
 157 H157          -5.1019    -0.8241    -4.8699 H       
 158 H158          -3.4369     0.9150    -4.8373 H       
 159 H159          -2.6545    -0.2999    -5.8941 H       
 160 H160          -2.9867    -2.5709    -0.7238 H       
 161 H161          -1.3902    -4.6920    -1.9401 H       
 162 H162          -0.5989    -3.3618     0.6893 H       
 163 H163           0.0693    -4.9006     0.0943 H       
 164 H164           0.8811    -3.7574    -1.9508 H       
 165 H165           0.2130    -2.2186    -1.3558 H       
 166 H166           2.8671    -1.9483    -1.7368 H       
 167 H167           3.7447    -2.1173    -0.3141 H       
 168 H168          -1.3214    -6.6157    -0.0540 H       
 169 H169          -3.7033    -6.4922     1.6309 H       
 170 H170          -3.4671    -8.4272    -0.7161 H       
 171 H171          -4.6769    -8.5576     0.5830 H       
 172 H172          -5.5372    -6.3042     0.0080 H       
 173 H173          -4.3274    -6.1738    -1.2911 H       
 174 H174          -5.2987    -8.1699    -2.3959 H       
 175 H175          -6.5085    -8.3003    -1.0968 H       
 176 H176          -6.6519    -5.6996    -2.1888 H       
 177 H177          -8.4502    -8.6778    -4.1622 H       
 178 H178          -8.3846    -5.2387    -3.7560 H       
 179 H179          -9.1312    -6.4996    -4.5778 H       
 180 H180          -3.9287    -8.9887     2.6206 H       
 181 H181          -1.3106   -10.2713     2.7869 H       
 182 H182          -2.6200    -8.9244     5.1911 H       
 183 H183          -1.2510   -10.0577     5.2895 H       
 184 H184           0.0948    -8.5573     3.8450 H       
 185 H185          -1.2743    -7.4241     3.7466 H       
 186 H186           0.8562    -6.1564     4.8032 H       
 187 H187           0.7974    -6.0818     6.4806 H       
 188 H188          -1.6294   -12.1537     4.6889 H       
 189 H189          -4.4082   -13.0443     4.8015 H       
 190 H190          -2.2644   -14.5861     3.2732 H       
 191 H191          -3.8530   -15.2473     3.7289 H       
 192 H192          -4.9715   -13.4450     2.4448 H       
 193 H193          -3.3830   -12.7839     1.9890 H       
 194 H194          -2.8187   -14.9180     0.8597 H       
 195 H195          -4.4072   -15.5792     1.3154 H       
 196 H196          -5.5258   -13.7769     0.0313 H       
 197 H197          -3.9373   -13.1157    -0.4245 H       
 198 H198          -4.8235   -14.5598    -2.1327 H       
 199 H199          -3.4672   -15.2585    -1.4706 H       
 200 H200          -4.2578   -15.5054     5.8893 H       
 201 H201          -1.9169   -15.7250     7.6212 H       
 202 H202          -3.2533   -15.6211     9.7073 H       
 203 H203          -3.3300   -14.0789     8.8221 H       
 204 H204          -4.7023   -15.2107     8.7586 H       
 205 H205          -2.5530   -17.7151     9.3235 H       
 206 H206          -4.4150   -19.5849     8.0727 H       
 207 H207          -2.6486   -21.3406     7.8003 H       
 208 H208          -2.1490   -18.7525     6.2611 H       
 209 H209          -1.6567   -20.3816     5.7398 H       
 210 H210          -3.3842   -19.9721     5.8677 H       
 211 H211          -0.2631   -20.5515     7.7542 H       
 212 H212          -0.8043   -18.9880     8.4106 H       
 213 H213          -0.9905   -20.4712     9.3768 H       
 214 H214          -4.5992   -21.6410     9.5005 H       
 215 H215          -3.1554   -21.5157    12.0357 H       
 216 H216          -6.1922   -21.2676    11.8770 H       
 217 H217          -5.2827   -21.6050    13.3694 H       
 218 H218          -4.0360   -19.4798    13.0902 H       
 219 H219          -4.9455   -19.1423    11.5978 H       
 220 H220          -7.0642   -19.1548    12.8861 H       
 221 H221          -6.1547   -19.4923    14.3785 H       
 222 H222          -5.0783   -17.1692    13.1863 H       
 223 H223          -8.4435   -16.8112    15.3181 H       
 224 H224          -5.7342   -15.0551    14.0641 H       
 225 H225          -7.1504   -14.9194    14.9578 H       
 226 H226          -4.2042   -23.5342    13.4808 H       
 227 H227          -5.1785   -25.6577    11.7289 H       
 228 H228          -3.2690   -27.1735    12.3297 H       
 229 H229          -2.3913   -24.6087    10.9308 H       
 230 H230          -1.7050   -26.2355    10.7054 H       
 231 H231          -3.3652   -25.8873    10.1660 H       
 232 H232          -2.5365   -25.9545    14.3610 H       
 233 H233          -1.1937   -26.1381    13.2071 H       
 234 H234          -2.0346   -24.5761    13.3528 H       
 235 H235          -5.6175   -27.7242    13.1317 H       
 236 H236          -5.7712   -27.1827    15.9971 H       
 237 H237          -8.2405   -27.3982    16.0666 H       
 238 H238          -7.7497   -25.9803    15.1090 H       
 239 H239          -8.2846   -27.4666    14.2885 H       
 240 H240          -7.2661   -29.2071    16.9613 H       
 241 H241          -5.9426   -31.5640    15.8562 H       
 242 H242          -6.1467   -31.1807    18.3307 H       
 243 H243          -7.6813   -33.6195    17.3277 H       
 244 H244          -5.9075   -33.4725    17.3293 H       
 245 H245          -6.7014   -34.6903    19.3380 H       
 246 H246          -5.9367   -33.1471    19.7873 H       
 247 H247          -7.7106   -33.2941    19.7857 H       
 248 H248          -9.1069   -31.6688    17.7690 H       
 249 H249          -8.3647   -31.5350    19.3812 H       
 250 H250          -8.3906   -30.1262    18.2937 H       
 251 H251          -9.0225   -33.3348    14.9463 H       
 252 H252           0.8292    17.2737   -23.0751 H       
 253 H253           1.9077    15.9472   -23.5704 H       
 254 H254           0.1466    15.7841   -23.7701 H       
 255 H255           1.6244    15.9913   -21.1074 H       
 256 H256          -0.1368    15.8281   -21.3071 H       
 257 H257           0.1949    13.6576   -22.4592 H       
 258 H258           1.9561    13.8208   -22.2596 H       
 259 H259           1.6728    13.8649   -19.7966 H       
 260 H260          -0.0884    13.7017   -19.9962 H       
 261 H261           0.2433    11.5312   -21.1484 H       
 262 H262           2.0045    11.6943   -20.9487 H       
 263 H263           1.7211    11.7384   -18.4857 H       
 264 H264          -0.0400    11.5753   -18.6854 H       
 265 H265           0.2916     9.4048   -19.8375 H       
 266 H266           2.0528     9.5679   -19.6379 H       
 267 H267           1.7695     9.6120   -17.1748 H       
 268 H268           0.0083     9.4488   -17.3745 H       
 269 H269           0.3400     7.2783   -18.5267 H       
 270 H270           2.1012     7.4415   -18.3270 H       
 271 H271           1.8179     7.4855   -15.8640 H       
 272 H272           0.0567     7.3224   -16.0637 H       
 273 H273           0.3884     5.1519   -17.2158 H       
 274 H274           2.1496     5.3150   -17.0161 H       
 275 H275           1.8662     5.3591   -14.5531 H       
 276 H276           0.1050     5.1960   -14.7528 H       
 277 H277           0.4367     3.0254   -15.9050 H       
 278 H278           2.1979     3.1886   -15.7053 H       
 279 H279           1.9146     3.2327   -13.2423 H       
 280 H280           0.1534     3.0695   -13.4420 H       
 281 H281           2.2463     1.0622   -14.3944 H       
 282 H282           0.4851     0.8990   -14.5941 H       
@<TRIPOS>BOND
   1    1    2 2
   2    1    4 1
   3    1   14 am
   4    3    4 1
   5    3  129 1
   6    3  130 1
   7    4    5 1
   8    4  131 1
   9    5    6 1
  10    5  132 1
  11    5  133 1
  12    6    7 1
  13    6  134 1
  14    6  135 1
  15    7    8 1
  16    7  136 1
  17    7  137 1
  18    8    9 1
  19    8  138 1
  20    9   10 2
  21    9   11 1
  22   10  139 1
  23   11  140 1
  24   11  141 1
  25   12   13 2
  26   12   15 1
  27   12   25 am
  28   14   15 1
  29   14  142 1
  30   15   16 1
  31   15  143 1
  32   16   17 1
  33   16  144 1
  34   16  145 1
  35   17   18 1
  36   17  146 1
  37   17  147 1
  38   18   19 1
  39   18  148 1
  40   18  149 1
  41   19   20 1
  42   19  150 1
  43   20   21 2
  44   20   22 1
  45   21  151 1
  46   22  112 am
  47   22  152 1
  48   23   24 2
  49   23   32 am
  50   23   26 1
  51   25   26 1
  52   25   29 1
  53   26   27 1
  54   26  153 1
  55   27   28 1
  56   27  154 1
  57   27  155 1
  58   28   29 1
  59   28  156 1
  60   28  157 1
  61   29  158 1
  62   29  159 1
  63   30   31 2
  64   30   33 1
  65   30   41 am
  66   32   33 1
  67   32  160 1
  68   33   34 1
  69   33  161 1
  70   34   35 1
  71   34  162 1
  72   34  163 1
  73   35   36 1
  74   35  164 1
  75   35  165 1
  76   36   37 2
  77   36   38 am
  78   38  166 1
  79   38  167 1
  80   39   40 2
  81   39   42 1
  82   39   52 am
  83   41   42 1
  84   41  168 1
  85   42   43 1
  86   42  169 1
  87   43   44 1
  88   43  170 1
  89   43  171 1
  90   44   45 1
  91   44  172 1
  92   44  173 1
  93   45   46 1
  94   45  174 1
  95   45  175 1
  96   46   47 1
  97   46  176 1
  98   47   48 2
  99   47   49 1
 100   48  177 1
 101   49  178 1
 102   49  179 1
 103   50   51 2
 104   50   53 1
 105   50   61 am
 106   52   53 1
 107   52  180 1
 108   53   54 1
 109   53  181 1
 110   54   55 1
 111   54  182 1
 112   54  183 1
 113   55   56 1
 114   55  184 1
 115   55  185 1
 116   56   57 2
 117   56   58 am
 118   58  186 1
 119   58  187 1
 120   59   60 2
 121   59   62 1
 122   59   70 am
 123   61   62 1
 124   61  188 1
 125   62   63 1
 126   62  189 1
 127   63   64 1
 128   63  190 1
 129   63  191 1
 130   64   65 1
 131   64  192 1
 132   64  193 1
 133   65   66 1
 134   65  194 1
 135   65  195 1
 136   66   67 1
 137   66  196 1
 138   66  197 1
 139   67  198 1
 140   67  199 1
 141   68   69 2
 142   68   71 1
 143   68   75 am
 144   70   71 1
 145   70  200 1
 146   71   72 1
 147   71  201 1
 148   72  202 1
 149   72  203 1
 150   72  204 1
 151   73   74 2
 152   73   76 1
 153   73   82 am
 154   75   76 1
 155   75  205 1
 156   76   77 1
 157   76  206 1
 158   77   78 1
 159   77   79 1
 160   77  207 1
 161   78  208 1
 162   78  209 1
 163   78  210 1
 164   79  211 1
 165   79  212 1
 166   79  213 1
 167   80   81 2
 168   80   83 1
 169   80   93 am
 170   82   83 1
 171   82  214 1
 172   83   84 1
 173   83  215 1
 174   84   85 1
 175   84  216 1
 176   84  217 1
 177   85   86 1
 178   85  218 1
 179   85  219 1
 180   86   87 1
 181   86  220 1
 182   86  221 1
 183   87   88 1
 184   87  222 1
 185   88   89 2
 186   88   90 1
 187   89  223 1
 188   90  224 1
 189   90  225 1
 190   91   92 2
 191   91   94 1
 192   91  100 am
 193   93   94 1
 194   93  226 1
 195   94   95 1
 196   94  227 1
 197   95   96 1
 198   95   97 1
 199   95  228 1
 200   96  229 1
 201   96  230 1
 202   96  231 1
 203   97  232 1
 204   97  233 1
 205   97  234 1
 206   98   99 2
 207   98  101 1
 208   98  105 am
 209  100  101 1
 210  100  235 1
 211  101  102 1
 212  101  236 1
 213  102  237 1
 214  102  238 1
 215  102  239 1
 216  103  104 2
 217  103  106 1
 218  103  111 1
 219  105  106 1
 220  105  240 1
 221  106  107 1
 222  106  241 1
 223  107  108 1
 224  107  110 1
 225  107  242 1
 226  108  109 1
 227  108  243 1
 228  108  244 1
 229  109  245 1
 230  109  246 1
 231  109  247 1
 232  110  248 1
 233  110  249 1
 234  110  250 1
 235  111  251 1
 236  112  113 2
 237  112  128 1
 238  114  115 1
 239  114  252 1
 240  114  253 1
 241  114  254 1
 242  115  116 1
 243  115  255 1
 244  115  256 1
 245  116  117 1
 246  116  257 1
 247  116  258 1
 248  117  118 1
 249  117  259 1
 250  117  260 1
 251  118  119 1
 252  118  261 1
 253  118  262 1
 254  119  120 1
 255  119  263 1
 256  119  264 1
 257  120  121 1
 258  120  265 1
 259  120  266 1
 260  121  122 1
 261  121  267 1
 262  121  268 1
 263  122  123 1
 264  122  269 1
 265  122  270 1
 266  123  124 1
 267  123  271 1
 268  123  272 1
 269  124  125 1
 270  124  273 1
 271  124  274 1
 272  125  126 1
 273  125  275 1
 274  125  276 1
 275  126  127 1
 276  126  277 1
 277  126  278 1
 278  127  128 1
 279  127  279 1
 280  127  280 1
 281  128  281 1
 282  128  282 1

#	End of record

