#	Name: ASD01870304
#	Creating user name:	WinNT
#	Creation time:	15. 06. 2019 19:39

#	Modifying user name:	WinNT
#	Modification time:	15. 06. 2019 19:39

#	Program:	/corina/corina34_cracker 3.40 0067  02.08.2006

@<TRIPOS>MOLECULE
ASD01870304
  35   37    0    0    0
SMALL
NO_CHARGES


@<TRIPOS>ATOM
   1 N1            -0.0133     1.4657    -0.6458 N.2     
   2 C2            -0.0557     0.1397    -0.7659 C.2     
   3 C3             1.1117    -0.4941    -0.5453 C.2     
   4 S4             2.3327     0.7161    -0.1590 S.3     
   5 C5             1.1300     1.9901    -0.3347 C.2     
   6 N6             1.3698     3.3471    -0.1659 N.am    
   7 C7             2.6048     3.7779     0.1590 C.2     
   8 C8             2.8845     5.2257     0.2390 C.ar    
   9 O9             3.4886     2.9746     0.3862 O.2     
  10 C10            1.8985     6.1062     0.6900 C.ar    
  11 C11            4.1379     5.7189    -0.1306 C.ar    
  12 C12            4.3937     7.0711    -0.0535 C.ar    
  13 C13            3.4096     7.9412     0.3904 C.ar    
  14 C14            2.1651     7.4565     0.7631 C.ar    
  15 F15            3.6657     9.2657     0.4644 F       
  16 C16           -1.2981    -0.5856    -1.1165 C.ar    
  17 C17           -2.4864     0.1104    -1.3368 C.ar    
  18 C18           -3.6260    -0.6196    -1.6642 C.ar    
  19 N19           -3.5407    -1.9452    -1.7543 N.ar    
  20 C20           -2.3991    -2.5672    -1.5388 C.ar    
  21 N21           -1.2971    -1.9153    -1.2320 N.ar    
  22 N22           -4.8321     0.0244    -1.8926 N.pl3   
  23 C23            0.2803     4.3108    -0.3408 C.3     
  24 H24            1.2721    -1.5609    -0.5964 H       
  25 H25            0.9288     5.7297     0.9805 H       
  26 H26            4.9054     5.0420    -0.4757 H       
  27 H27            5.3625     7.4536    -0.3390 H       
  28 H28            1.4034     8.1382     1.1117 H       
  29 H29           -2.5218     1.1868    -1.2553 H       
  30 H30           -2.3654    -3.6435    -1.6203 H       
  31 H31           -4.8865     0.9905    -1.8247 H       
  32 H32           -5.6217    -0.4910    -2.1202 H       
  33 H33           -0.2032     4.4908     0.6194 H       
  34 H34            0.6823     5.2476    -0.7266 H       
  35 H35           -0.4489     3.9108    -1.0454 H       
@<TRIPOS>BOND
   1    1    2 1
   2    1    5 2
   3    2    3 2
   4    2   16 1
   5    3    4 1
   6    3   24 1
   7    4    5 1
   8    5    6 1
   9    6    7 am
  10    6   23 1
  11    7    8 1
  12    7    9 2
  13    8   11 ar
  14    8   10 ar
  15   10   14 ar
  16   10   25 1
  17   11   12 ar
  18   11   26 1
  19   12   13 ar
  20   12   27 1
  21   13   14 ar
  22   13   15 1
  23   14   28 1
  24   16   17 ar
  25   16   21 ar
  26   17   18 ar
  27   17   29 1
  28   18   19 ar
  29   18   22 1
  30   19   20 ar
  31   20   21 ar
  32   20   30 1
  33   22   31 1
  34   22   32 1
  35   23   33 1
  36   23   34 1
  37   23   35 1

#	End of record

