#	Name: ASD02030025
#	Creating user name:	WinNT
#	Creation time:	15. 06. 2019 20:14

#	Modifying user name:	WinNT
#	Modification time:	15. 06. 2019 20:14

#	Program:	/corina/corina34_cracker 3.40 0067  02.08.2006

@<TRIPOS>MOLECULE
ASD02030025
  62   64    0    0    0
SMALL
NO_CHARGES


@<TRIPOS>ATOM
   1 C1            -0.2091     1.6200     0.9756 C.ar    
   2 C2            -0.1493     0.2372     1.0080 C.ar    
   3 C3            -1.3144    -0.5064     0.9475 C.ar    
   4 C4            -2.5370     0.1312     0.8548 C.ar    
   5 C5            -2.5967     1.5122     0.8220 C.ar    
   6 C6            -1.4342     2.2567     0.8886 C.ar    
   7 Cl7            1.2520     2.5545     1.0513 Cl      
   8 C8            -3.8059    -0.6791     0.7890 C.3     
   9 C9            -4.3290    -0.9237     2.2058 C.3     
  10 N10           -5.5658    -1.7136     2.1417 N.3     
  11 C11           -5.9692    -2.1697     3.4785 C.3     
  12 C12           -5.0737    -3.3317     3.9128 C.3     
  13 C13           -5.4123    -3.7265     5.3517 C.3     
  14 O14           -4.4996    -4.7318     5.7971 O.3     
  15 C15           -4.6634    -5.1964     7.0648 C.ar    
  16 C16           -3.8120    -6.1727     7.5606 C.ar    
  17 C17           -3.9773    -6.6447     8.8479 C.ar    
  18 C18           -4.9962    -6.1417     9.6460 C.ar    
  19 C19           -5.8482    -5.1643     9.1488 C.ar    
  20 C20           -5.6781    -4.6896     7.8630 C.ar    
  21 N21           -5.1647    -6.6197    10.9503 N.am    
  22 S22           -6.4160    -7.6462    11.3008 S.o2    
  23 C23           -6.0757    -9.1287    10.3125 C.3     
  24 O24           -6.2636    -7.9244    12.6859 O.2     
  25 O25           -7.5683    -6.9741    10.8111 O.2     
  26 O26           -5.2907    -4.4490     3.0487 O.3     
  27 Cl27           1.3868    -0.5632     1.1239 Cl      
  28 C28           -6.6442    -0.9518     1.4977 C.3     
  29 C29           -7.7545    -1.8904     1.1007 C.ar    
  30 C30           -8.9307    -1.9143     1.8259 C.ar    
  31 C31           -9.9508    -2.7744     1.4638 C.ar    
  32 C32           -9.7959    -3.6130     0.3737 C.ar    
  33 C33           -8.6170    -3.5902    -0.3552 C.ar    
  34 C34           -7.5976    -2.7239     0.0065 C.ar    
  35 F35           -6.4479    -2.6995    -0.7026 F       
  36 F36           -8.4639    -4.4080    -1.4196 F       
  37 F37          -10.7928    -4.4536     0.0205 F       
  38 H38           -1.2684    -1.5851     0.9724 H       
  39 H39           -3.5527     2.0095     0.7492 H       
  40 H40           -1.4815     3.3354     0.8629 H       
  41 H41           -4.5551    -0.1350     0.2140 H       
  42 H42           -3.6018    -1.6352     0.3070 H       
  43 H43           -3.5797    -1.4679     2.7808 H       
  44 H44           -4.5331     0.0324     2.6879 H       
  45 H45           -5.8685    -1.3485     4.1883 H       
  46 H46           -7.0072    -2.5013     3.4515 H       
  47 H47           -4.0289    -3.0261     3.8561 H       
  48 H48           -5.3324    -2.8516     5.9968 H       
  49 H49           -6.4296    -4.1158     5.3918 H       
  50 H50           -3.0197    -6.5641     6.9396 H       
  51 H51           -3.3144    -7.4051     9.2337 H       
  52 H52           -6.6409    -4.7725     9.7688 H       
  53 H53           -6.3404    -3.9292     7.4763 H       
  54 H54           -4.5485    -6.3498    11.6492 H       
  55 H55           -5.1554    -9.5958    10.6631 H       
  56 H56           -6.9022    -9.8319    10.4158 H       
  57 H57           -5.9651    -8.8494     9.2647 H       
  58 H58           -6.2149    -4.7274     2.9904 H       
  59 H59           -7.0294    -0.2074     2.1945 H       
  60 H60           -6.2561    -0.4522     0.6101 H       
  61 H61           -9.0531    -1.2605     2.6767 H       
  62 H62          -10.8690    -2.7921     2.0321 H       
@<TRIPOS>BOND
   1    1    2 ar
   2    1    7 1
   3    1    6 ar
   4    2    3 ar
   5    2   27 1
   6    3    4 ar
   7    3   38 1
   8    4    5 ar
   9    4    8 1
  10    5    6 ar
  11    5   39 1
  12    6   40 1
  13    8    9 1
  14    8   41 1
  15    8   42 1
  16    9   10 1
  17    9   43 1
  18    9   44 1
  19   10   11 1
  20   10   28 1
  21   11   12 1
  22   11   45 1
  23   11   46 1
  24   12   13 1
  25   12   26 1
  26   12   47 1
  27   13   14 1
  28   13   48 1
  29   13   49 1
  30   14   15 1
  31   15   16 ar
  32   15   20 ar
  33   16   17 ar
  34   16   50 1
  35   17   18 ar
  36   17   51 1
  37   18   19 ar
  38   18   21 1
  39   19   20 ar
  40   19   52 1
  41   20   53 1
  42   21   22 am
  43   21   54 1
  44   22   23 1
  45   22   24 2
  46   22   25 2
  47   23   55 1
  48   23   56 1
  49   23   57 1
  50   26   58 1
  51   28   29 1
  52   28   59 1
  53   28   60 1
  54   29   30 ar
  55   29   34 ar
  56   30   31 ar
  57   30   61 1
  58   31   32 ar
  59   31   62 1
  60   32   33 ar
  61   32   37 1
  62   33   34 ar
  63   33   36 1
  64   34   35 1

#	End of record

