#	Name: ASD01813285
#	Creating user name:	WinNT
#	Creation time:	15. 06. 2019 19:30

#	Modifying user name:	WinNT
#	Modification time:	15. 06. 2019 19:30

#	Program:	/corina/corina34_cracker 3.40 0067  02.08.2006

@<TRIPOS>MOLECULE
ASD01813285
  49   52    0    0    0
SMALL
NO_CHARGES


@<TRIPOS>ATOM
   1 O1            -0.0173     1.4248     0.0099 O.3     
   2 C2             0.0021    -0.0041     0.0020 C.3     
   3 H3             0.5291    -0.3661     0.8848 H       
   4 C4             0.7157    -0.4991    -1.2587 C.3     
   5 O5             0.6830    -1.9273    -1.2932 O.3     
   6 C6            -0.6342    -2.4799    -1.3366 C.3     
   7 C7            -1.4020    -2.0645    -0.0790 C.3     
   8 C8            -1.4345    -0.5355     0.0097 C.3     
   9 H9            -1.9768    -0.1330    -0.8458 H       
  10 N10           -2.1007    -0.1294     1.2497 N.am    
  11 C11           -3.4436    -0.0218     1.2892 C.2     
  12 O12           -4.1022    -0.2619     0.2957 O.2     
  13 C13           -4.1145     0.3873     2.5380 C.ar    
  14 C14           -3.3476     0.6695     3.6831 C.ar    
  15 C15           -3.9412     1.0471     4.8432 C.ar    
  16 C16           -3.0991     1.3438     6.0573 C.3     
  17 C17           -3.0120     0.1122     6.9214 C.ar    
  18 C18           -3.9531    -0.1168     7.9137 C.ar    
  19 C19           -3.8343    -1.2628     8.6843 C.ar    
  20 C20           -2.7879    -2.1341     8.4394 C.ar    
  21 Cl21          -2.6275    -3.5734     9.3966 Cl      
  22 N22           -1.9105    -1.8833     7.4859 N.ar    
  23 C23           -1.9966    -0.8055     6.7308 C.ar    
  24 C24           -5.3421     1.1626     4.9146 C.ar    
  25 C25           -5.9766     1.5530     6.1055 C.ar    
  26 C26           -7.3337     1.6565     6.1448 C.ar    
  27 C27           -8.1073     1.3808     5.0193 C.ar    
  28 C28           -7.5277     0.9995     3.8480 C.ar    
  29 C29           -6.1292     0.8822     3.7696 C.ar    
  30 C30           -5.4985     0.4967     2.5736 C.ar    
  31 F31           -6.2322     0.2308     1.4707 F       
  32 H32            0.8606     1.8301     0.0037 H       
  33 H33            0.2126    -0.1026    -2.1406 H       
  34 H34            1.7513    -0.1594    -1.2473 H       
  35 H35           -1.1549    -2.1093    -2.2195 H       
  36 H36           -0.5709    -3.5672    -1.3813 H       
  37 H37           -2.4209    -2.4481    -0.1310 H       
  38 H38           -0.9040    -2.4690     0.8021 H       
  39 H39           -1.5753     0.0621     2.0422 H       
  40 H40           -2.2719     0.5840     3.6383 H       
  41 H41           -2.0980     1.6379     5.7420 H       
  42 H42           -3.5541     2.1550     6.6256 H       
  43 H43           -4.7595     0.5816     8.0825 H       
  44 H44           -4.5493    -1.4727     9.4661 H       
  45 H45           -1.2624    -0.6360     5.9571 H       
  46 H46           -5.3905     1.7697     6.9864 H       
  47 H47           -7.8178     1.9566     7.0624 H       
  48 H48           -9.1820     1.4706     5.0770 H       
  49 H49           -8.1394     0.7881     2.9834 H       
@<TRIPOS>BOND
   1    1    2 1
   2    1   32 1
   3    2    3 1
   4    2    8 1
   5    2    4 1
   6    4    5 1
   7    4   33 1
   8    4   34 1
   9    5    6 1
  10    6    7 1
  11    6   35 1
  12    6   36 1
  13    7    8 1
  14    7   37 1
  15    7   38 1
  16    8    9 1
  17    8   10 1
  18   10   11 am
  19   10   39 1
  20   11   12 2
  21   11   13 1
  22   13   30 ar
  23   13   14 ar
  24   14   15 ar
  25   14   40 1
  26   15   16 1
  27   15   24 ar
  28   16   17 1
  29   16   41 1
  30   16   42 1
  31   17   23 ar
  32   17   18 ar
  33   18   19 ar
  34   18   43 1
  35   19   20 ar
  36   19   44 1
  37   20   21 1
  38   20   22 ar
  39   22   23 ar
  40   23   45 1
  41   24   29 ar
  42   24   25 ar
  43   25   26 ar
  44   25   46 1
  45   26   27 ar
  46   26   47 1
  47   27   28 ar
  48   27   48 1
  49   28   29 ar
  50   28   49 1
  51   29   30 ar
  52   30   31 1

#	End of record

