#	Name: ASD08070043
#	Creating user name:	WinNT
#	Creation time:	15. 06. 2019 21:14

#	Modifying user name:	WinNT
#	Modification time:	15. 06. 2019 21:14

#	Program:	/corina/corina34_cracker 3.40 0067  02.08.2006

@<TRIPOS>MOLECULE
ASD08070043
  43   44    0    0    0
SMALL
NO_CHARGES


@<TRIPOS>ATOM
   1 C1            -0.0870     1.0547     0.0357 C.ar    
   2 C2            -0.1314    -0.3628     0.0537 C.ar    
   3 C3            -1.3747    -1.0204     0.0742 C.ar    
   4 C4            -2.5247    -0.2989     0.0764 C.ar    
   5 C5            -2.4939     1.1068     0.0583 C.ar    
   6 C6            -1.2854     1.7834     0.0334 C.ar    
   7 C7             1.1598     1.7055     0.0147 C.ar    
   8 C8             2.3041     0.9689     0.0119 C.ar    
   9 C9             2.2601    -0.4240     0.0296 C.ar    
  10 C10            1.0718    -1.0881     0.0502 C.ar    
  11 C11           -3.7605     1.8680     0.0602 C.2     
  12 N12           -4.9393     1.2148     0.0792 N.am    
  13 O13           -3.7393     3.0833     0.0446 O.2     
  14 C14           -6.1913     1.9662     0.1978 C.3     
  15 C15           -7.3063     1.1908    -0.4554 C.2     
  16 C16           -6.5184     2.1820     1.6767 C.3     
  17 O17           -8.5525     1.6894    -0.4683 O.3     
  18 O18           -7.0785     0.1204    -0.9674 O.2     
  19 C19           -9.5763     0.8882    -1.1150 C.3     
  20 C20           -7.7300     3.1080     1.8012 C.3     
  21 C21           -8.1232     3.2381     3.2741 C.3     
  22 C22           -7.3764     4.4883     1.2439 C.3     
  23 H23           -1.4145    -2.0996     0.0879 H       
  24 H24           -3.4754    -0.8112     0.0918 H       
  25 H25           -1.2661     2.8631     0.0199 H       
  26 H26            1.2088     2.7843     0.0005 H       
  27 H27            3.2601     1.4709    -0.0046 H       
  28 H28            3.1828    -0.9852     0.0266 H       
  29 H29            1.0542    -2.1678     0.0641 H       
  30 H30           -4.9587     0.2471     0.0143 H       
  31 H31           -6.0833     2.9323    -0.2952 H       
  32 H32           -6.7448     1.2229     2.1425 H       
  33 H33           -5.6620     2.6352     2.1759 H       
  34 H34          -10.5341     1.4050    -1.0547 H       
  35 H35           -9.3112     0.7352    -2.1611 H       
  36 H36           -9.6523    -0.0772    -0.6145 H       
  37 H37           -8.5650     2.6916     1.2377 H       
  38 H38           -7.2883     3.6545     3.8376 H       
  39 H39           -8.9864     3.8978     3.3628 H       
  40 H40           -8.3751     2.2548     3.6712 H       
  41 H41           -7.1995     4.4124     0.1710 H       
  42 H42           -8.2011     5.1767     1.4283 H       
  43 H43           -6.4768     4.8589     1.7352 H       
@<TRIPOS>BOND
   1    1    2 ar
   2    1    7 ar
   3    1    6 ar
   4    2    3 ar
   5    2   10 ar
   6    3    4 ar
   7    3   23 1
   8    4    5 ar
   9    4   24 1
  10    5    6 ar
  11    5   11 1
  12    6   25 1
  13    7    8 ar
  14    7   26 1
  15    8    9 ar
  16    8   27 1
  17    9   10 ar
  18    9   28 1
  19   10   29 1
  20   11   12 am
  21   11   13 2
  22   12   14 1
  23   12   30 1
  24   14   15 1
  25   14   16 1
  26   14   31 1
  27   15   17 1
  28   15   18 2
  29   16   20 1
  30   16   32 1
  31   16   33 1
  32   17   19 1
  33   19   34 1
  34   19   35 1
  35   19   36 1
  36   20   21 1
  37   20   22 1
  38   20   37 1
  39   21   38 1
  40   21   39 1
  41   21   40 1
  42   22   41 1
  43   22   42 1
  44   22   43 1

#	End of record

