#	Name: ASD01911893
#	Creating user name:	WinNT
#	Creation time:	15. 06. 2019 19:58

#	Modifying user name:	WinNT
#	Modification time:	15. 06. 2019 19:58

#	Program:	/corina/corina34_cracker 3.40 0067  02.08.2006

@<TRIPOS>MOLECULE
ASD01911893
  35   37    0    0    0
SMALL
NO_CHARGES


@<TRIPOS>ATOM
   1 C1            -1.0583    -0.4831    -2.0435 C.ar    
   2 C2            -1.0631     0.0686    -0.7663 C.ar    
   3 C3            -1.0159     1.4482    -0.6276 C.ar    
   4 N4            -0.9670     2.2307    -1.6874 N.ar    
   5 C5            -0.9609     1.7424    -2.9120 C.ar    
   6 C6            -1.0061     0.3756    -3.1319 C.ar    
   7 O7            -1.1138    -0.7328     0.3300 O.3     
   8 C8            -1.1597    -2.0769     0.1362 C.ar    
   9 C9            -0.0054    -2.7694    -0.2026 C.ar    
  10 C10           -0.0507    -4.1373    -0.4001 C.ar    
  11 C11           -1.2456    -4.8191    -0.2603 C.ar    
  12 C12           -2.4032    -4.1305     0.0786 C.ar    
  13 C13           -2.3581    -2.7580     0.2823 C.ar    
  14 N14           -3.6118    -4.8196     0.2191 N.am    
  15 C15           -3.6154    -6.0874     0.6764 C.2     
  16 C16           -4.8824    -6.8529     0.7267 C.ar    
  17 O17           -2.5791    -6.6024     1.0475 O.2     
  18 C18           -4.8794    -8.1624     1.2003 C.ar    
  19 C19           -6.0729    -8.8671     1.2418 C.ar    
  20 C20           -7.2279    -8.2373     0.8080 C.ar    
  21 C21           -7.1580    -6.9299     0.3482 C.ar    
  22 N22           -6.0124    -6.2828     0.3249 N.ar    
  23 Cl23          -8.6020    -6.1352    -0.1967 Cl      
  24 F24           -0.9989    -0.1152    -4.3905 F       
  25 Cl25           1.3947    -5.0000    -0.8248 Cl      
  26 H26           -1.0898    -1.5534    -2.1841 H       
  27 H27           -1.0196     1.8860     0.3597 H       
  28 H28           -0.9205     2.4168    -3.7546 H       
  29 H29            0.9291    -2.2392    -0.3124 H       
  30 H30           -1.2788    -5.8875    -0.4150 H       
  31 H31           -3.2570    -2.2205     0.5459 H       
  32 H32           -4.4475    -4.3852    -0.0126 H       
  33 H33           -3.9600    -8.6230     1.5305 H       
  34 H34           -6.1012    -9.8842     1.6038 H       
  35 H35           -8.1735    -8.7588     0.8272 H       
@<TRIPOS>BOND
   1    1    2 ar
   2    1    6 ar
   3    1   26 1
   4    2    3 ar
   5    2    7 1
   6    3    4 ar
   7    3   27 1
   8    4    5 ar
   9    5    6 ar
  10    5   28 1
  11    6   24 1
  12    7    8 1
  13    8    9 ar
  14    8   13 ar
  15    9   10 ar
  16    9   29 1
  17   10   11 ar
  18   10   25 1
  19   11   12 ar
  20   11   30 1
  21   12   13 ar
  22   12   14 1
  23   13   31 1
  24   14   15 am
  25   14   32 1
  26   15   16 1
  27   15   17 2
  28   16   18 ar
  29   16   22 ar
  30   18   19 ar
  31   18   33 1
  32   19   20 ar
  33   19   34 1
  34   20   21 ar
  35   20   35 1
  36   21   22 ar
  37   21   23 1

#	End of record

