#	Name: ASD01884935
#	Creating user name:	WinNT
#	Creation time:	15. 06. 2019 19:49

#	Modifying user name:	WinNT
#	Modification time:	15. 06. 2019 19:49

#	Program:	/corina/corina34_cracker 3.40 0067  02.08.2006

@<TRIPOS>MOLECULE
ASD01884935
  49   52    0    0    0
SMALL
NO_CHARGES


@<TRIPOS>ATOM
   1 C1             6.2366     0.7097    -0.0546 C.3     
   2 C2             5.4921    -0.5997    -0.0064 C.ar    
   3 N3             4.9017    -1.0423    -1.0984 N.ar    
   4 C4             4.2389    -2.1877    -1.0940 C.ar    
   5 C5             4.1712    -2.9229     0.0790 C.ar    
   6 C6             3.4271    -4.2325     0.1270 C.3     
   7 C7             4.3820    -5.3749    -0.2253 C.3     
   8 C8             3.6379    -6.6845    -0.1773 C.ar    
   9 C9             3.5780    -7.4014     1.0089 C.ar    
  10 C10            2.9017    -8.6022     1.0728 C.ar    
  11 F11            2.8515    -9.2891     2.2350 F       
  12 C12            2.2697    -9.1058    -0.0635 C.ar    
  13 N13            1.5888   -10.3052    -0.0134 N.pl3   
  14 C14            0.9647   -10.8301    -1.0781 C.2     
  15 C15            0.9583   -10.2049    -2.3080 C.2     
  16 C16            0.2615   -10.8131    -3.4522 C.2     
  17 N17            0.1594   -10.1392    -4.6149 N.am    
  18 O18           -0.2226   -11.9243    -3.3488 O.2     
  19 C19            1.6592    -8.9199    -2.4567 C.2     
  20 O20            1.6818    -8.3289    -3.5223 O.2     
  21 C21            2.3328    -8.3766    -1.2625 C.ar    
  22 C22            3.0158    -7.1612    -1.3100 C.ar    
  23 C23            1.5482   -11.0034     1.1994 C.ar    
  24 C24            0.5394   -10.7437     2.1179 C.ar    
  25 C25            0.5010   -11.4338     3.3134 C.ar    
  26 C26            1.4675   -12.3844     3.5967 C.ar    
  27 F27            1.4281   -13.0585     4.7668 F       
  28 C28            2.4741   -12.6452     2.6819 C.ar    
  29 C29            2.5135   -11.9608     1.4832 C.ar    
  30 C30            4.8047    -2.4249     1.2066 C.ar    
  31 N31            5.4534    -1.2743     1.1251 N.ar    
  32 H32            7.2745     0.5275    -0.3336 H       
  33 H33            5.7720     1.3649    -0.7913 H       
  34 H34            6.2020     1.1836     0.9264 H       
  35 H35            3.7569    -2.5446    -1.9922 H       
  36 H36            3.0292    -4.3878     1.1298 H       
  37 H37            2.6065    -4.2107    -0.5901 H       
  38 H38            4.7799    -5.2196    -1.2282 H       
  39 H39            5.2026    -5.3967     0.4918 H       
  40 H40            4.0663    -7.0156     1.8916 H       
  41 H41            0.4504   -11.7735    -0.9693 H       
  42 H42            0.4773    -9.2247    -4.6749 H       
  43 H43           -0.2319   -10.5686    -5.3917 H       
  44 H44            3.0598    -6.5989    -2.2310 H       
  45 H45           -0.2144   -10.0022     1.8975 H       
  46 H46           -0.2831   -11.2319     4.0281 H       
  47 H47            3.2267   -13.3872     2.9047 H       
  48 H48            3.2963   -12.1675     0.7684 H       
  49 H49            4.7727    -2.9704     2.1382 H       
@<TRIPOS>BOND
   1    1    2 1
   2    1   32 1
   3    1   33 1
   4    1   34 1
   5    2   31 ar
   6    2    3 ar
   7    3    4 ar
   8    4    5 ar
   9    4   35 1
  10    5    6 1
  11    5   30 ar
  12    6    7 1
  13    6   36 1
  14    6   37 1
  15    7    8 1
  16    7   38 1
  17    7   39 1
  18    8   22 ar
  19    8    9 ar
  20    9   10 ar
  21    9   40 1
  22   10   11 1
  23   10   12 ar
  24   12   21 ar
  25   12   13 1
  26   13   14 1
  27   13   23 1
  28   14   15 2
  29   14   41 1
  30   15   16 1
  31   15   19 1
  32   16   17 am
  33   16   18 2
  34   17   42 1
  35   17   43 1
  36   19   20 2
  37   19   21 1
  38   21   22 ar
  39   22   44 1
  40   23   29 ar
  41   23   24 ar
  42   24   25 ar
  43   24   45 1
  44   25   26 ar
  45   25   46 1
  46   26   27 1
  47   26   28 ar
  48   28   29 ar
  49   28   47 1
  50   29   48 1
  51   30   31 ar
  52   30   49 1

#	End of record

