#	Name: ASD01813661
#	Creating user name:	WinNT
#	Creation time:	15. 06. 2019 19:30

#	Modifying user name:	WinNT
#	Modification time:	15. 06. 2019 19:30

#	Program:	/corina/corina34_cracker 3.40 0067  02.08.2006

@<TRIPOS>MOLECULE
ASD01813661
  43   46    0    0    0
SMALL
NO_CHARGES


@<TRIPOS>ATOM
   1 C1             0.0987     1.4752     0.3556 C.ar    
   2 C2             0.0803     0.0889     0.3476 C.ar    
   3 C3             1.2503    -0.6314     0.2176 C.ar    
   4 C4             2.4681     0.0344     0.0920 C.ar    
   5 C5             2.4852     1.4397     0.0998 C.ar    
   6 C6             1.2931     2.1562     0.2326 C.ar    
   7 N7             3.6439    -0.6744    -0.0375 N.pl3   
   8 C8             4.8383    -0.0818    -0.1601 C.2     
   9 C9             4.9809     1.2911    -0.1654 C.2     
  10 C10            3.7794     2.1315    -0.0338 C.2     
  11 O11            3.8523     3.3479    -0.0334 O.2     
  12 C12            6.3099     1.9036    -0.3011 C.2     
  13 O13            6.4362     3.2458    -0.3049 O.3     
  14 O14            7.2952     1.2000    -0.4099 O.2     
  15 C15            3.5837    -2.1382    -0.0406 C.3     
  16 C16            3.4403    -2.6321    -1.4571 C.ar    
  17 C17            4.5547    -2.7791    -2.2606 C.ar    
  18 N18            4.4425    -3.2101    -3.5013 N.ar    
  19 C19            3.2639    -3.5183    -4.0263 C.ar    
  20 C20            2.0983    -3.3932    -3.2724 C.ar    
  21 C21            2.1877    -2.9490    -1.9653 C.ar    
  22 F22            1.2151    -1.9819     0.2125 F       
  23 C23            3.1857    -3.9996    -5.4271 C.2     
  24 C24            2.0071    -4.2692    -6.1508 C.2     
  25 N25            2.3484    -4.6722    -7.3457 N.2     
  26 N26            3.7458    -4.6760    -7.4322 N.pl3   
  27 C27            4.2426    -4.2565    -6.2524 C.2     
  28 C28            4.5322    -5.0642    -8.6057 C.3     
  29 F29            1.3092     3.5071     0.2397 F       
  30 H30           -0.8259     2.0246     0.4540 H       
  31 H31           -0.8601    -0.4332     0.4445 H       
  32 H32            5.7195    -0.6985    -0.2577 H       
  33 H33            7.3304     3.6023    -0.3966 H       
  34 H34            4.4990    -2.5404     0.3935 H       
  35 H35            2.7272    -2.4678     0.5476 H       
  36 H36            5.5309    -2.5373    -1.8669 H       
  37 H37            1.1393    -3.6442    -3.7011 H       
  38 H38            1.3020    -2.8424    -1.3566 H       
  39 H39            0.9977    -4.1619    -5.7819 H       
  40 H40            5.2877    -4.1495    -6.0023 H       
  41 H41            4.7097    -4.1886    -9.2300 H       
  42 H42            5.4868    -5.4793    -8.2822 H       
  43 H43            3.9854    -5.8137    -9.1778 H       
@<TRIPOS>BOND
   1    1    2 ar
   2    1    6 ar
   3    1   30 1
   4    2    3 ar
   5    2   31 1
   6    3    4 ar
   7    3   22 1
   8    4    5 ar
   9    4    7 1
  10    5    6 ar
  11    5   10 1
  12    6   29 1
  13    7    8 1
  14    7   15 1
  15    8    9 2
  16    8   32 1
  17    9   10 1
  18    9   12 1
  19   10   11 2
  20   12   13 1
  21   12   14 2
  22   13   33 1
  23   15   16 1
  24   15   34 1
  25   15   35 1
  26   16   17 ar
  27   16   21 ar
  28   17   18 ar
  29   17   36 1
  30   18   19 ar
  31   19   20 ar
  32   19   23 1
  33   20   21 ar
  34   20   37 1
  35   21   38 1
  36   23   24 1
  37   23   27 2
  38   24   25 2
  39   24   39 1
  40   25   26 1
  41   26   27 1
  42   26   28 1
  43   27   40 1
  44   28   41 1
  45   28   42 1
  46   28   43 1

#	End of record

