#	Name: ASD01911502
#	Creating user name:	WinNT
#	Creation time:	15. 06. 2019 19:57

#	Modifying user name:	WinNT
#	Modification time:	15. 06. 2019 19:57

#	Program:	/corina/corina34_cracker 3.40 0067  02.08.2006

@<TRIPOS>MOLECULE
ASD01911502
  79   82    0    0    0
SMALL
NO_CHARGES


@<TRIPOS>ATOM
   1 O1             1.1500    -0.7560    -0.0543 O.3     
   2 C2             1.5882    -1.8389     0.6065 C.2     
   3 N3             2.6014    -1.8013     1.4786 N.am    
   4 C4             3.3624    -0.5870     1.7607 C.3     
   5 C5             2.5604     0.6436     1.3277 C.3     
   6 C6             2.0306     0.4008    -0.0921 C.3     
   7 O7             1.0383    -2.9031     0.4032 O.2     
   8 C8             2.9462    -2.9732     2.1484 C.ar    
   9 C9             3.9007    -3.8230     1.5975 C.ar    
  10 C10            4.2379    -4.9827     2.2665 C.ar    
  11 C11            3.5999    -5.2591     3.4831 C.ar    
  12 C12            2.6538    -4.3587     3.9708 C.ar    
  13 N13            2.3652    -3.2603     3.3030 N.ar    
  14 C14            3.9147    -6.4492     4.2146 C.1     
  15 C15            4.1729    -7.4250     4.8142 C.1     
  16 Si16           4.5906    -9.0041     5.7847 Si      
  17 C17            3.5719    -9.0629     7.3434 C.3     
  18 C18            4.2089   -10.4963     4.7367 C.3     
  19 C19            6.4007    -9.0015     6.2256 C.3     
  20 C20            3.2000     0.1291    -1.0405 C.3     
  21 C21            1.2514     1.6279    -0.5695 C.3     
  22 O22            1.4643     0.8430     2.2226 O.3     
  23 C23            1.8018     1.5787     3.4002 C.3     
  24 C24            2.7261     2.7400     3.0286 C.3     
  25 C25            2.3220     3.2962     1.6618 C.3     
  26 C26            0.5451     2.1194     4.0322 C.ar    
  27 C27           -0.6689     1.9798     3.3858 C.ar    
  28 C28           -1.8216     2.4757     3.9656 C.ar    
  29 C29           -1.7605     3.1108     5.1919 C.ar    
  30 C30           -0.5467     3.2496     5.8387 C.ar    
  31 C31            0.6054     2.7498     5.2610 C.ar    
  32 C32            2.5041     0.6702     4.3761 C.ar    
  33 C33            2.2838    -0.6938     4.3321 C.ar    
  34 C34            2.9279    -1.5272     5.2273 C.ar    
  35 C35            3.7928    -0.9967     6.1661 C.ar    
  36 C36            4.0139     0.3672     6.2095 C.ar    
  37 C37            3.3730     1.2002     5.3115 C.ar    
  38 C38            2.6087     3.8426     4.0829 C.3     
  39 C39            4.1717     2.2425     2.9697 C.3     
  40 H40            3.5669    -0.5281     2.8297 H       
  41 H41            4.3051    -0.6154     1.2142 H       
  42 H42            3.2048     1.5227     1.3339 H       
  43 H43            4.3721    -3.5782     0.6571 H       
  44 H44            4.9750    -5.6604     1.8618 H       
  45 H45            2.1558    -4.5615     4.9075 H       
  46 H46            2.5128    -9.0645     7.0854 H       
  47 H47            3.8115    -9.9688     7.9001 H       
  48 H48            3.7952    -8.1899     7.9565 H       
  49 H49            4.8050   -10.4619     3.8247 H       
  50 H50            4.4486   -11.4023     5.2934 H       
  51 H51            3.1499   -10.4979     4.4787 H       
  52 H52            6.6240    -8.1284     6.8388 H       
  53 H53            6.6404    -9.9074     6.7824 H       
  54 H54            6.9967    -8.9671     5.3137 H       
  55 H55            2.8175    -0.0662    -2.0423 H       
  56 H56            3.8570     0.9985    -1.0655 H       
  57 H57            3.7587    -0.7385    -0.6893 H       
  58 H58            0.4185     1.8156     0.1081 H       
  59 H59            1.9117     2.4950    -0.5827 H       
  60 H60            0.8689     1.4471    -1.5741 H       
  61 H61            1.3334     3.7499     1.7319 H       
  62 H62            3.0454     4.0484     1.3473 H       
  63 H63            2.2993     2.4866     0.9323 H       
  64 H64           -0.7166     1.4836     2.4278 H       
  65 H65           -2.7699     2.3673     3.4602 H       
  66 H66           -2.6610     3.4989     5.6445 H       
  67 H67           -0.4989     3.7460     6.7966 H       
  68 H68            1.5532     2.8549     5.7680 H       
  69 H69            1.6080    -1.1083     3.5986 H       
  70 H70            2.7552    -2.5927     5.1934 H       
  71 H71            4.2956    -1.6477     6.8660 H       
  72 H72            4.6893     0.7817     6.9432 H       
  73 H73            3.5485     2.2653     5.3430 H       
  74 H74            2.7987     3.4226     5.0706 H       
  75 H75            3.3390     4.6244     3.8738 H       
  76 H76            1.6049     4.2664     4.0552 H       
  77 H77            4.2465     1.4279     2.2493 H       
  78 H78            4.8249     3.0596     2.6634 H       
  79 H79            4.4736     1.8856     3.9544 H       
@<TRIPOS>BOND
   1    1    2 1
   2    1    6 1
   3    2    3 am
   4    2    7 2
   5    3    4 1
   6    3    8 1
   7    4    5 1
   8    4   40 1
   9    4   41 1
  10    5    6 1
  11    5   22 1
  12    5   42 1
  13    6   20 1
  14    6   21 1
  15    8    9 ar
  16    8   13 ar
  17    9   10 ar
  18    9   43 1
  19   10   11 ar
  20   10   44 1
  21   11   12 ar
  22   11   14 1
  23   12   13 ar
  24   12   45 1
  25   14   15 3
  26   15   16 1
  27   16   17 1
  28   16   18 1
  29   16   19 1
  30   17   46 1
  31   17   47 1
  32   17   48 1
  33   18   49 1
  34   18   50 1
  35   18   51 1
  36   19   52 1
  37   19   53 1
  38   19   54 1
  39   20   55 1
  40   20   56 1
  41   20   57 1
  42   21   58 1
  43   21   59 1
  44   21   60 1
  45   22   23 1
  46   23   24 1
  47   23   26 1
  48   23   32 1
  49   24   25 1
  50   24   38 1
  51   24   39 1
  52   25   61 1
  53   25   62 1
  54   25   63 1
  55   26   27 ar
  56   26   31 ar
  57   27   28 ar
  58   27   64 1
  59   28   29 ar
  60   28   65 1
  61   29   30 ar
  62   29   66 1
  63   30   31 ar
  64   30   67 1
  65   31   68 1
  66   32   33 ar
  67   32   37 ar
  68   33   34 ar
  69   33   69 1
  70   34   35 ar
  71   34   70 1
  72   35   36 ar
  73   35   71 1
  74   36   37 ar
  75   36   72 1
  76   37   73 1
  77   38   74 1
  78   38   75 1
  79   38   76 1
  80   39   77 1
  81   39   78 1
  82   39   79 1

#	End of record

