#	Name: ASD01208001
#	Creating user name:	WinNT
#	Creation time:	15. 06. 2019 19:09

#	Modifying user name:	WinNT
#	Modification time:	15. 06. 2019 19:09

#	Program:	/corina/corina34_cracker 3.40 0067  02.08.2006

@<TRIPOS>MOLECULE
ASD01208001
  54   58    0    0    0
SMALL
NO_CHARGES


@<TRIPOS>ATOM
   1 N1             0.1807     1.0643     0.6819 N.am    
   2 C2             0.1154    -0.2458     0.9493 C.2     
   3 C3             1.4799    -0.7334     1.3853 C.3     
   4 C4             2.3542     0.5355     1.3228 C.3     
   5 C5             1.3919     1.6068     0.8581 C.2     
   6 O6            -0.8793    -0.9326     0.8572 O.2     
   7 O7             1.6732     2.7714     0.6738 O.2     
   8 C8            -0.9767     1.8394     0.2279 C.3     
   9 C9            -4.8376     2.8015     4.6835 C.2     
  10 N10           -3.8877     3.7029     4.6510 N.2     
  11 C11           -3.0435     3.4385     3.6253 C.ar    
  12 C12           -3.5201     2.2816     2.9824 C.ar    
  13 N13           -4.6553     1.8990     3.6712 N.pl3   
  14 C14           -1.8878     4.0653     3.1474 C.ar    
  15 C15           -1.2289     3.5430     2.0526 C.ar    
  16 C16           -1.7074     2.3973     1.4220 C.ar    
  17 C17           -2.8450     1.7706     1.8826 C.ar    
  18 C18           -5.9393     2.7615     5.6709 C.ar    
  19 C19           -6.0146     3.7385     6.6630 C.ar    
  20 C20           -7.0512     3.6879     7.5791 C.ar    
  21 C21           -7.9791     2.6617     7.4734 C.ar    
  22 C22           -7.8436     1.7253     6.4637 C.ar    
  23 N23           -6.8510     1.7989     5.6018 N.ar    
  24 O24           -0.1058     4.1513     1.5867 O.3     
  25 C25            0.3876     5.2043     2.2895 C.ar    
  26 C26            1.0948     4.9864     3.4633 C.ar    
  27 C27            1.5957     6.0587     4.1756 C.ar    
  28 C28            1.3926     7.3483     3.7202 C.ar    
  29 C29            0.6883     7.5683     2.5508 C.ar    
  30 C30            0.1901     6.4992     1.8316 C.ar    
  31 S31            2.0320     8.7139     4.6318 S.o2    
  32 O32            1.1755     9.7951     4.2901 O.2     
  33 O33            2.1120     8.2367     5.9679 O.2     
  34 C34            3.6920     8.9765     3.9492 C.3     
  35 H35            1.4411    -1.1229     2.4026 H       
  36 H36            1.8542    -1.4915     0.6973 H       
  37 H37            2.7504     0.7774     2.3090 H       
  38 H38            3.1635     0.4087     0.6037 H       
  39 H39           -0.6389     2.6587    -0.4067 H       
  40 H40           -1.6470     1.1932    -0.3389 H       
  41 H41           -5.2176     1.1335     3.4742 H       
  42 H42           -1.5126     4.9540     3.6329 H       
  43 H43           -3.2105     0.8823     1.3888 H       
  44 H44           -5.2746     4.5233     6.7162 H       
  45 H45           -7.1357     4.4303     8.3589 H       
  46 H46           -8.7992     2.5942     8.1728 H       
  47 H47           -8.5643     0.9254     6.3789 H       
  48 H48            1.2531     3.9793     3.8199 H       
  49 H49            2.1462     5.8896     5.0893 H       
  50 H50            0.5307     8.5766     2.1974 H       
  51 H51           -0.3564     6.6714     0.9162 H       
  52 H52            3.6162     9.1977     2.8845 H       
  53 H53            4.1672     9.8132     4.4612 H       
  54 H54            4.2900     8.0764     4.0916 H       
@<TRIPOS>BOND
   1    1    2 am
   2    1    5 am
   3    1    8 1
   4    2    3 1
   5    2    6 2
   6    3    4 1
   7    3   35 1
   8    3   36 1
   9    4    5 1
  10    4   37 1
  11    4   38 1
  12    5    7 2
  13    8   16 1
  14    8   39 1
  15    8   40 1
  16    9   10 2
  17    9   13 1
  18    9   18 1
  19   10   11 1
  20   11   12 ar
  21   11   14 ar
  22   12   13 1
  23   12   17 ar
  24   13   41 1
  25   14   15 ar
  26   14   42 1
  27   15   16 ar
  28   15   24 1
  29   16   17 ar
  30   17   43 1
  31   18   19 ar
  32   18   23 ar
  33   19   20 ar
  34   19   44 1
  35   20   21 ar
  36   20   45 1
  37   21   22 ar
  38   21   46 1
  39   22   23 ar
  40   22   47 1
  41   24   25 1
  42   25   26 ar
  43   25   30 ar
  44   26   27 ar
  45   26   48 1
  46   27   28 ar
  47   27   49 1
  48   28   29 ar
  49   28   31 1
  50   29   30 ar
  51   29   50 1
  52   30   51 1
  53   31   32 2
  54   31   33 2
  55   31   34 1
  56   34   52 1
  57   34   53 1
  58   34   54 1

#	End of record

