#	Name: ASD01122009
#	Creating user name:	WinNT
#	Creation time:	15. 06. 2019 18:59

#	Modifying user name:	WinNT
#	Modification time:	15. 06. 2019 18:59

#	Program:	/corina/corina34_cracker 3.40 0067  02.08.2006

@<TRIPOS>MOLECULE
ASD01122009
  32   33    0    0    0
SMALL
NO_CHARGES


@<TRIPOS>ATOM
   1 C1            -0.0211     1.7048     0.0114 C.2     
   2 S2             0.0021    -0.0041     0.0020 S.3     
   3 C3             1.7637     0.0056    -0.0148 C.2     
   4 C4             2.1710     1.2934    -0.0117 C.2     
   5 N5             1.1785     2.1732     0.0025 N.2     
   6 C6             3.5959     1.6871    -0.0232 C.2     
   7 C7             4.1185     2.7721    -0.6538 C.2     
   8 C8             5.5059     2.7595    -0.4012 C.2     
   9 C9             5.7580     1.6793     0.3624 C.2     
  10 O10            4.6005     1.0365     0.5940 O.3     
  11 C11            2.6575    -1.2076    -0.0298 C.3     
  12 C12            2.9732    -1.6263     1.4075 C.3     
  13 C13            1.6869    -2.0797     2.1009 C.3     
  14 C14            3.9788    -2.7793     1.3936 C.3     
  15 P15            7.3878     1.1793     0.9823 P.3     
  16 O16            7.8922     2.2024     1.9253 O.2     
  17 O17            7.2625    -0.2350     1.7414 O.3     
  18 O18            8.4110     1.0367    -0.2526 O.3     
  19 H19           -0.9170     2.3079     0.0191 H       
  20 H20            3.5761     3.5025    -1.2357 H       
  21 H21            6.2294     3.4796    -0.7539 H       
  22 H22            2.1517    -2.0251    -0.5436 H       
  23 H23            3.5847    -0.9693    -0.5509 H       
  24 H24            3.3981    -0.7801     1.9474 H       
  25 H25            1.9119    -2.3780     3.1249 H       
  26 H26            0.9705    -1.2583     2.1108 H       
  27 H27            1.2620    -2.9259     1.5610 H       
  28 H28            4.8952    -2.4563     0.8996 H       
  29 H29            4.2038    -3.0776     2.4176 H       
  30 H30            3.5539    -3.6255     0.8537 H       
  31 H31            6.9369    -0.9538     1.1826 H       
  32 H32            9.3043     0.7713     0.0054 H       
@<TRIPOS>BOND
   1    1    2 1
   2    1    5 2
   3    1   19 1
   4    2    3 1
   5    3    4 2
   6    3   11 1
   7    4    5 1
   8    4    6 1
   9    6    7 2
  10    6   10 1
  11    7    8 1
  12    7   20 1
  13    8    9 2
  14    8   21 1
  15    9   10 1
  16    9   15 1
  17   11   12 1
  18   11   22 1
  19   11   23 1
  20   12   13 1
  21   12   14 1
  22   12   24 1
  23   13   25 1
  24   13   26 1
  25   13   27 1
  26   14   28 1
  27   14   29 1
  28   14   30 1
  29   15   16 2
  30   15   17 1
  31   15   18 1
  32   17   31 1
  33   18   32 1

#	End of record

