#	Name: ASD01884964
#	Creating user name:	WinNT
#	Creation time:	15. 06. 2019 19:49

#	Modifying user name:	WinNT
#	Modification time:	15. 06. 2019 19:49

#	Program:	/corina/corina34_cracker 3.40 0067  02.08.2006

@<TRIPOS>MOLECULE
ASD01884964
  45   48    0    0    0
SMALL
NO_CHARGES


@<TRIPOS>ATOM
   1 C1            -0.0166     1.3752     0.0096 C.ar    
   2 C2             0.0021    -0.0041     0.0020 C.ar    
   3 C3            -1.1980    -0.7166     0.0101 C.ar    
   4 C4            -2.4130    -0.0319     0.0259 C.ar    
   5 C5            -2.4269     1.3469     0.0334 C.ar    
   6 C6            -1.2317     2.0554     0.0307 C.ar    
   7 C7            -1.1813    -2.1977     0.0015 C.2     
   8 C8            -1.6667    -2.9076     1.0839 C.2     
   9 C9            -0.6733    -2.9007    -1.1182 C.2     
  10 C10           -0.6599    -4.2467    -1.1243 C.2     
  11 N11           -1.1325    -4.9557    -0.0576 N.pl3   
  12 C12           -1.6380    -4.3119     1.0461 C.2     
  13 C13           -1.2406    -6.2873     0.2073 C.2     
  14 N14           -1.7725    -6.4107     1.3958 N.2     
  15 N15           -2.0121    -5.2518     1.9007 N.2     
  16 C16           -0.8235    -7.4133    -0.7033 C.3     
  17 F17            1.1442     2.0664     0.0022 F       
  18 C18            0.2400    -8.3836    -0.1853 C.3     
  19 C19           -1.2179    -8.8343    -0.2958 C.3     
  20 N20           -1.2490     3.4519     0.0388 N.pl3   
  21 C21           -2.5266     4.1686     0.0501 C.3     
  22 C22           -3.0248     4.3002     1.4907 C.3     
  23 C23           -2.3352     5.5617    -0.5527 C.3     
  24 C24           -2.2180    -2.1861     2.2867 C.3     
  25 F25           -3.6073    -2.0732     2.1664 F       
  26 F26           -1.9072    -2.9059     3.4453 F       
  27 F27           -1.6514    -0.9093     2.3648 F       
  28 H28            0.9442    -0.5319    -0.0105 H       
  29 H29           -3.3427    -0.5815     0.0318 H       
  30 H30           -3.3679     1.8767     0.0456 H       
  31 H31           -0.2957    -2.3549    -1.9702 H       
  32 H32           -0.2708    -4.7723    -1.9838 H       
  33 H33           -0.8151    -7.1787    -1.7677 H       
  34 H34            0.9479    -8.7876    -0.9090 H       
  35 H35            0.6380    -8.2075     0.8140 H       
  36 H36           -1.7791    -8.9547     0.6309 H       
  37 H37           -1.4692    -9.5349    -1.0922 H       
  38 H38           -0.4150     3.9472     0.0369 H       
  39 H39           -3.2587     3.6155    -0.5384 H       
  40 H40           -2.2927     4.8533     2.0792 H       
  41 H41           -3.9754     4.8335     1.4991 H       
  42 H42           -3.1611     3.3077     1.9201 H       
  43 H43           -1.9803     5.4680    -1.5790 H       
  44 H44           -3.2858     6.0950    -0.5443 H       
  45 H45           -1.6032     6.1148     0.0358 H       
@<TRIPOS>BOND
   1    1    2 ar
   2    1   17 1
   3    1    6 ar
   4    2    3 ar
   5    2   28 1
   6    3    4 ar
   7    3    7 1
   8    4    5 ar
   9    4   29 1
  10    5    6 ar
  11    5   30 1
  12    6   20 1
  13    7    8 2
  14    7    9 1
  15    8   24 1
  16    8   12 1
  17    9   10 2
  18    9   31 1
  19   10   11 1
  20   10   32 1
  21   11   12 1
  22   11   13 1
  23   12   15 2
  24   13   14 2
  25   13   16 1
  26   14   15 1
  27   16   18 1
  28   16   19 1
  29   16   33 1
  30   18   19 1
  31   18   34 1
  32   18   35 1
  33   19   36 1
  34   19   37 1
  35   20   21 1
  36   20   38 1
  37   21   22 1
  38   21   23 1
  39   21   39 1
  40   22   40 1
  41   22   41 1
  42   22   42 1
  43   23   43 1
  44   23   44 1
  45   23   45 1
  46   24   25 1
  47   24   26 1
  48   24   27 1

#	End of record

