#	Name: ASD02198890
#	Creating user name:	WinNT
#	Creation time:	15. 06. 2019 20:20

#	Modifying user name:	WinNT
#	Modification time:	15. 06. 2019 20:20

#	Program:	/corina/corina34_cracker 3.40 0067  02.08.2006

@<TRIPOS>MOLECULE
ASD02198890
  52   56    0    0    0
SMALL
NO_CHARGES


@<TRIPOS>ATOM
   1 F1             2.5100    -2.1520     1.9135 F       
   2 C2            -0.0163     1.3526     0.0095 C.2     
   3 C3             0.0021    -0.0041     0.0020 C.2     
   4 N4             1.1722    -0.6813    -0.0123 N.pl3   
   5 N5             2.3181    -0.1068    -0.0198 N.2     
   6 C6             2.4434     1.2030    -0.0143 C.2     
   7 C7             1.2264     2.0304     0.0013 C.2     
   8 C8             1.1303    -2.0796    -0.0190 C.ar    
   9 C9             1.8094    -2.8012     0.9581 C.ar    
  10 C10            1.7669    -4.1826     0.9500 C.ar    
  11 C11            1.0470    -4.8489    -0.0326 C.ar    
  12 C12            0.3692    -4.1279    -1.0077 C.ar    
  13 C13            0.4059    -2.7486    -0.9978 C.ar    
  14 C14            3.7802     1.8310    -0.0227 C.2     
  15 N15            4.5056     2.1818    -1.1264 N.pl3   
  16 N16            5.7100     2.7435    -0.6846 N.2     
  17 C17            5.7221     2.7373     0.6246 C.2     
  18 C18            4.5280     2.1790     1.0808 C.2     
  19 C19            4.1147     2.0102    -2.4605 C.ar    
  20 C20            3.3659     0.8999    -2.8283 C.ar    
  21 C21            2.9799     0.7309    -4.1441 C.ar    
  22 C22            3.3379     1.6651    -5.0972 C.ar    
  23 C23            4.0862     2.7767    -4.7353 C.ar    
  24 C24            4.4704     2.9526    -3.4154 C.ar    
  25 O25            1.2861     3.2510     0.0065 O.2     
  26 N26            1.0043    -6.2499    -0.0410 N.pl3   
  27 N27            1.6369    -7.0996     0.8757 N.2     
  28 C28            1.3655    -8.3358     0.5424 C.2     
  29 C29            0.5523    -8.3142    -0.5959 C.2     
  30 C30            0.3404    -7.0206    -0.9320 C.2     
  31 O31            4.4376     3.6947    -5.6738 O.3     
  32 C32            4.0027     3.4522    -7.0132 C.3     
  33 F33            2.6052     3.3961    -7.0469 F       
  34 F34            4.4480     4.4870    -7.8427 F       
  35 F35            4.5291     2.2360    -7.4615 F       
  36 C36            4.1319     1.9821     2.5214 C.3     
  37 H37           -0.9487     1.8976     0.0169 H       
  38 H38           -0.9298    -0.5499     0.0080 H       
  39 H39            2.2939    -4.7437     1.7076 H       
  40 H40           -0.1901    -4.6473    -1.7717 H       
  41 H41           -0.1217    -2.1891    -1.7561 H       
  42 H42            6.5223     3.1076     1.2482 H       
  43 H43            3.0855     0.1679    -2.0853 H       
  44 H44            2.3976    -0.1331    -4.4282 H       
  45 H45            3.0353     1.5299    -6.1251 H       
  46 H46            5.0523     3.8171    -3.1319 H       
  47 H47            1.7103    -9.2204     1.0573 H       
  48 H48            0.1599    -9.1774    -1.1129 H       
  49 H49           -0.2482    -6.6673    -1.7658 H       
  50 H50            3.6041     2.8669     2.8773 H       
  51 H51            3.4797     1.1126     2.6033 H       
  52 H52            5.0253     1.8244     3.1256 H       
@<TRIPOS>BOND
   1    1    9 1
   2    2    3 2
   3    2    7 1
   4    2   37 1
   5    3    4 1
   6    3   38 1
   7    4    5 1
   8    4    8 1
   9    5    6 2
  10    6    7 1
  11    6   14 1
  12    7   25 2
  13    8    9 ar
  14    8   13 ar
  15    9   10 ar
  16   10   11 ar
  17   10   39 1
  18   11   12 ar
  19   11   26 1
  20   12   13 ar
  21   12   40 1
  22   13   41 1
  23   14   15 1
  24   14   18 2
  25   15   16 1
  26   15   19 1
  27   16   17 2
  28   17   18 1
  29   17   42 1
  30   18   36 1
  31   19   20 ar
  32   19   24 ar
  33   20   21 ar
  34   20   43 1
  35   21   22 ar
  36   21   44 1
  37   22   23 ar
  38   22   45 1
  39   23   24 ar
  40   23   31 1
  41   24   46 1
  42   26   27 1
  43   26   30 1
  44   27   28 2
  45   28   29 1
  46   28   47 1
  47   29   30 2
  48   29   48 1
  49   30   49 1
  50   31   32 1
  51   32   33 1
  52   32   34 1
  53   32   35 1
  54   36   50 1
  55   36   51 1
  56   36   52 1

#	End of record

