#	Name: ASD01915773
#	Creating user name:	WinNT
#	Creation time:	15. 06. 2019 20:06

#	Modifying user name:	WinNT
#	Modification time:	15. 06. 2019 20:06

#	Program:	/corina/corina34_cracker 3.40 0067  02.08.2006

@<TRIPOS>MOLECULE
ASD01915773
  54   58    0    0    0
SMALL
NO_CHARGES


@<TRIPOS>ATOM
   1 C1            -0.0043     1.4631     0.2178 C.2     
   2 N2             0.0615     0.1099    -0.0288 N.pl3   
   3 C3            -1.1510    -0.6742    -0.2925 C.3     
   4 C4            -2.3299    -0.0463     0.4491 C.3     
   5 N5            -2.4043     1.3988     0.2636 N.am    
   6 C6            -1.2916     2.1721     0.2680 C.2     
   7 C7             1.2784     1.9002     0.3942 C.2     
   8 C8             2.0745     0.7557     0.2525 C.2     
   9 N9             1.2813    -0.2616     0.0091 N.2     
  10 C10            3.5767     0.7020     0.3606 C.3     
  11 O11            4.0816     2.0107     0.6333 O.3     
  12 C12            5.4286     2.1380     0.7615 C.ar    
  13 O13           -1.3542     3.3860     0.3110 O.2     
  14 C14            5.9871     3.3800     1.0266 C.ar    
  15 C15            6.2470     1.0252     0.6331 C.ar    
  16 C16            7.6159     1.1572     0.7637 C.ar    
  17 C17            8.1705     2.3971     1.0222 C.ar    
  18 C18            7.3565     3.5067     1.1563 C.ar    
  19 C19           -3.6482     1.9976     0.0777 C.ar    
  20 N20           -3.7163     3.2586    -0.3191 N.ar    
  21 C21           -4.8072     1.2635     0.3053 C.ar    
  22 C22           -6.0360     1.8704     0.1164 C.ar    
  23 C23           -6.0638     3.1962    -0.2953 C.ar    
  24 C24           -4.8737     3.8632    -0.5075 C.ar    
  25 C25           -4.8970     5.3023    -0.9544 C.3     
  26 C26           -5.0366     5.3633    -2.4785 C.3     
  27 C27           -6.0904     6.0183    -0.3143 C.3     
  28 C28           -6.1517     7.4566    -0.8350 C.3     
  29 O29           -6.2498     7.4420    -2.2606 O.3     
  30 C30           -5.1386     6.8269    -2.9156 C.3     
  31 H31           -1.3556    -0.6788    -1.3632 H       
  32 H32           -1.0057    -1.6970     0.0550 H       
  33 H33           -3.2541    -0.4960     0.0863 H       
  34 H34           -2.2306    -0.2601     1.5133 H       
  35 H35            1.6071     2.9085     0.5983 H       
  36 H36            3.8590     0.0279     1.1692 H       
  37 H37            3.9958     0.3392    -0.5780 H       
  38 H38            5.3517     4.2471     1.1310 H       
  39 H39            5.8143     0.0564     0.4315 H       
  40 H40            8.2534     0.2911     0.6642 H       
  41 H41            9.2409     2.4982     1.1240 H       
  42 H42            7.7921     4.4742     1.3579 H       
  43 H43           -4.7488     0.2335     0.6248 H       
  44 H44           -6.9529     1.3252     0.2850 H       
  45 H45           -7.0066     3.6991    -0.4521 H       
  46 H46           -3.9714     5.7927    -0.6530 H       
  47 H47           -4.1637     4.9045    -2.9429 H       
  48 H48           -5.9360     4.8285    -2.7837 H       
  49 H49           -7.0111     5.4967    -0.5757 H       
  50 H50           -5.9711     6.0278     0.7691 H       
  51 H51           -7.0239     7.9581    -0.4157 H       
  52 H52           -5.2483     7.9894    -0.5383 H       
  53 H53           -4.2219     7.3515    -2.6461 H       
  54 H54           -5.2810     6.8748    -3.9952 H       
@<TRIPOS>BOND
   1    1    2 1
   2    1    7 2
   3    1    6 1
   4    2    3 1
   5    2    9 1
   6    3    4 1
   7    3   31 1
   8    3   32 1
   9    4    5 1
  10    4   33 1
  11    4   34 1
  12    5    6 am
  13    5   19 1
  14    6   13 2
  15    7    8 1
  16    7   35 1
  17    8    9 2
  18    8   10 1
  19   10   11 1
  20   10   36 1
  21   10   37 1
  22   11   12 1
  23   12   14 ar
  24   12   15 ar
  25   14   18 ar
  26   14   38 1
  27   15   16 ar
  28   15   39 1
  29   16   17 ar
  30   16   40 1
  31   17   18 ar
  32   17   41 1
  33   18   42 1
  34   19   21 ar
  35   19   20 ar
  36   20   24 ar
  37   21   22 ar
  38   21   43 1
  39   22   23 ar
  40   22   44 1
  41   23   24 ar
  42   23   45 1
  43   24   25 1
  44   25   26 1
  45   25   27 1
  46   25   46 1
  47   26   30 1
  48   26   47 1
  49   26   48 1
  50   27   28 1
  51   27   49 1
  52   27   50 1
  53   28   29 1
  54   28   51 1
  55   28   52 1
  56   29   30 1
  57   30   53 1
  58   30   54 1

#	End of record

