#	Name: ASD01884053
#	Creating user name:	WinNT
#	Creation time:	15. 06. 2019 19:47

#	Modifying user name:	WinNT
#	Modification time:	15. 06. 2019 19:47

#	Program:	/corina/corina34_cracker 3.40 0067  02.08.2006

@<TRIPOS>MOLECULE
ASD01884053
  52   56    0    0    0
SMALL
NO_CHARGES


@<TRIPOS>ATOM
   1 C1            -0.6958    -7.7633     3.1458 C.3     
   2 O2            -0.8453    -7.2848     1.8076 O.3     
   3 C3            -1.7426    -6.2842     1.6067 C.ar    
   4 C4            -2.4603    -5.7697     2.6767 C.ar    
   5 C5            -3.3725    -4.7524     2.4714 C.ar    
   6 C6            -3.5715    -4.2465     1.2008 C.ar    
   7 C7            -2.8571    -4.7580     0.1299 C.ar    
   8 F8            -3.0531    -4.2622    -1.1114 F       
   9 C9            -1.9381    -5.7721     0.3325 C.ar    
  10 C10           -1.1552    -6.3242    -0.8307 C.3     
  11 H11           -0.6751    -7.2876    -0.6593 H       
  12 C12           -1.6847    -6.0391    -2.2376 C.3     
  13 C13           -0.4294    -5.3236    -1.7323 C.3     
  14 H14           -0.5181    -4.2660    -1.4841 H       
  15 C15            0.9146    -5.7521    -2.3248 C.3     
  16 O16            1.4925    -4.6561    -3.0367 O.3     
  17 C17            2.7409    -4.8368    -3.5385 C.2     
  18 C18            2.9668    -5.7920    -4.5511 C.2     
  19 C19            4.2054    -5.9728    -5.0512 C.2     
  20 N20            5.2558    -5.2370    -4.5864 N.pl3   
  21 C21            6.5843    -5.1987    -4.8901 C.2     
  22 C22            7.2881    -6.0461    -5.9186 C.3     
  23 C23            7.2679    -5.3293    -7.2702 C.3     
  24 C24            8.6129    -4.9142    -7.8698 C.3     
  25 C25            7.8322    -6.0815    -8.4772 C.3     
  26 N26            7.1360    -4.2924    -4.1266 N.2     
  27 N27            6.2526    -3.7543    -3.3614 N.2     
  28 C28            5.0696    -4.2985    -3.6008 C.2     
  29 C29            3.7846    -4.0903    -3.0694 C.2     
  30 C30            3.5623    -3.0602    -1.9921 C.3     
  31 F31            2.2393    -3.1332    -1.5430 F       
  32 F32            4.4316    -3.3072    -0.9242 F       
  33 F33            3.8095    -1.7839    -2.5090 F       
  34 H34            0.0490    -8.5588     3.1661 H       
  35 H35           -0.3720    -6.9458     3.7899 H       
  36 H36           -1.6505    -8.1503     3.5020 H       
  37 H37           -2.3062    -6.1646     3.6701 H       
  38 H38           -3.9308    -4.3523     3.3048 H       
  39 H39           -4.2853    -3.4516     1.0425 H       
  40 H40           -1.5526    -6.8149    -2.9919 H       
  41 H41           -2.5993    -5.4522    -2.3218 H       
  42 H42            1.5850    -6.0575    -1.5214 H       
  43 H43            0.7609    -6.5881    -3.0072 H       
  44 H44            2.1438    -6.3816    -4.9273 H       
  45 H45            4.3677    -6.7069    -5.8265 H       
  46 H46            8.3205    -6.2099    -5.6096 H       
  47 H47            6.7792    -7.0057    -6.0086 H       
  48 H48            6.4159    -4.6712    -7.4406 H       
  49 H49            8.6460    -3.9827    -8.4349 H       
  50 H50            9.5122    -5.1518    -7.3015 H       
  51 H51            8.2178    -7.0869    -8.3083 H       
  52 H52            7.3516    -5.9179    -9.4417 H       
@<TRIPOS>BOND
   1    1    2 1
   2    1   34 1
   3    1   35 1
   4    1   36 1
   5    2    3 1
   6    3    9 ar
   7    3    4 ar
   8    4    5 ar
   9    4   37 1
  10    5    6 ar
  11    5   38 1
  12    6    7 ar
  13    6   39 1
  14    7    8 1
  15    7    9 ar
  16    9   10 1
  17   10   11 1
  18   10   13 1
  19   10   12 1
  20   12   13 1
  21   12   40 1
  22   12   41 1
  23   13   14 1
  24   13   15 1
  25   15   16 1
  26   15   42 1
  27   15   43 1
  28   16   17 1
  29   17   29 2
  30   17   18 1
  31   18   19 2
  32   18   44 1
  33   19   20 1
  34   19   45 1
  35   20   28 1
  36   20   21 1
  37   21   22 1
  38   21   26 2
  39   22   23 1
  40   22   46 1
  41   22   47 1
  42   23   25 1
  43   23   24 1
  44   23   48 1
  45   24   25 1
  46   24   49 1
  47   24   50 1
  48   25   51 1
  49   25   52 1
  50   26   27 1
  51   27   28 2
  52   28   29 1
  53   29   30 1
  54   30   31 1
  55   30   32 1
  56   30   33 1

#	End of record

