#	Name: ASD01811838
#	Creating user name:	WinNT
#	Creation time:	15. 06. 2019 19:27

#	Modifying user name:	WinNT
#	Modification time:	15. 06. 2019 19:27

#	Program:	/corina/corina34_cracker 3.40 0067  02.08.2006

@<TRIPOS>MOLECULE
ASD01811838
  56   59    0    0    0
SMALL
NO_CHARGES


@<TRIPOS>ATOM
   1 C1            -0.0078     1.3516    -0.1030 C.ar    
   2 C2            -0.0257    -0.0346     0.0119 C.ar    
   3 C3            -1.2375    -0.7116     0.0875 C.ar    
   4 C4            -2.4248    -0.0157     0.0492 C.ar    
   5 C5            -2.4126     1.3775    -0.0662 C.ar    
   6 C6            -1.1890     2.0512    -0.1359 C.ar    
   7 C7             1.3060     2.0851    -0.1849 C.3     
   8 O8             1.1411    -0.7267     0.0498 O.3     
   9 C9             1.7226    -0.9480     1.3362 C.3     
  10 C10           -1.2516    -2.2135     0.2114 C.3     
  11 C11           -1.1726    -2.8315    -1.1608 C.ar    
  12 C12            0.0513    -3.2209    -1.6729 C.ar    
  13 C13            0.1264    -3.7876    -2.9305 C.ar    
  14 C14           -1.0275    -3.9659    -3.6798 C.ar    
  15 C15           -2.2543    -3.5743    -3.1637 C.ar    
  16 C16           -2.3248    -3.0132    -1.9033 C.ar    
  17 O17           -0.9562    -4.5228    -4.9174 O.3     
  18 C18           -2.1844    -4.6758    -5.6317 C.3     
  19 C19           -3.4938     2.3759    -0.1313 C.2     
  20 N20           -2.9813     3.6135    -0.2419 N.am    
  21 C21           -1.5170     3.5188    -0.2536 C.3     
  22 O22           -4.6812     2.1172    -0.0913 O.2     
  23 C23           -3.7568     4.8531    -0.3326 C.3     
  24 C24           -4.6201     5.0098     0.9229 C.3     
  25 C25           -5.4832     6.2674     0.7820 C.3     
  26 C26           -6.3250     6.1590    -0.4921 C.3     
  27 O27           -5.4624     5.9842    -1.6179 O.3     
  28 C28           -4.6652     4.7994    -1.5637 C.3     
  29 O29           -3.7772     5.1346     2.0701 O.3     
  30 H30           -3.3642    -0.5453     0.1078 H       
  31 H31            1.6062     2.1773    -1.2287 H       
  32 H32            1.1955     3.0783     0.2504 H       
  33 H33            2.0668     1.5303     0.3642 H       
  34 H34            2.0116     0.0077     1.7736 H       
  35 H35            0.9962    -1.4390     1.9838 H       
  36 H36            2.6036    -1.5814     1.2326 H       
  37 H37           -0.3969    -2.5371     0.8054 H       
  38 H38           -2.1737    -2.5291     0.6994 H       
  39 H39            0.9493    -3.0816    -1.0894 H       
  40 H40            1.0826    -4.0913    -3.3302 H       
  41 H41           -3.1540    -3.7121    -3.7450 H       
  42 H42           -3.2795    -2.7082    -1.5011 H       
  43 H43           -2.8591    -5.3144    -5.0616 H       
  44 H44           -2.6447    -3.6984    -5.7764 H       
  45 H45           -1.9861    -5.1313    -6.6019 H       
  46 H46           -1.0994     4.0656     0.5917 H       
  47 H47           -1.1233     3.9163    -1.1891 H       
  48 H48           -3.0789     5.7025    -0.4169 H       
  49 H49           -5.2632     4.1368     1.0345 H       
  50 H50           -6.1409     6.3566     1.6466 H       
  51 H51           -4.8402     7.1454     0.7202 H       
  52 H52           -6.9965     5.3042    -0.4125 H       
  53 H53           -6.9096     7.0701    -0.6201 H       
  54 H54           -4.0541     4.7309    -2.4637 H       
  55 H55           -5.3151     3.9267    -1.4981 H       
  56 H56           -4.2585     5.2374     2.9025 H       
@<TRIPOS>BOND
   1    1    2 ar
   2    1    7 1
   3    1    6 ar
   4    2    3 ar
   5    2    8 1
   6    3    4 ar
   7    3   10 1
   8    4    5 ar
   9    4   30 1
  10    5    6 ar
  11    5   19 1
  12    6   21 1
  13    7   31 1
  14    7   32 1
  15    7   33 1
  16    8    9 1
  17    9   34 1
  18    9   35 1
  19    9   36 1
  20   10   11 1
  21   10   37 1
  22   10   38 1
  23   11   12 ar
  24   11   16 ar
  25   12   13 ar
  26   12   39 1
  27   13   14 ar
  28   13   40 1
  29   14   15 ar
  30   14   17 1
  31   15   16 ar
  32   15   41 1
  33   16   42 1
  34   17   18 1
  35   18   43 1
  36   18   44 1
  37   18   45 1
  38   19   20 am
  39   19   22 2
  40   20   21 1
  41   20   23 1
  42   21   46 1
  43   21   47 1
  44   23   24 1
  45   23   28 1
  46   23   48 1
  47   24   25 1
  48   24   29 1
  49   24   49 1
  50   25   26 1
  51   25   50 1
  52   25   51 1
  53   26   27 1
  54   26   52 1
  55   26   53 1
  56   27   28 1
  57   28   54 1
  58   28   55 1
  59   29   56 1

#	End of record

