#	Name: ASD01912590
#	Creating user name:	WinNT
#	Creation time:	15. 06. 2019 19:59

#	Modifying user name:	WinNT
#	Modification time:	15. 06. 2019 19:59

#	Program:	/corina/corina34_cracker 3.40 0067  02.08.2006

@<TRIPOS>MOLECULE
ASD01912590
  62   66    0    0    0
SMALL
NO_CHARGES


@<TRIPOS>ATOM
   1 C1             0.0004     1.4165    -0.3878 C.ar    
   2 C2            -1.2144     1.9576     0.0336 C.ar    
   3 C3             1.2604     2.1625    -0.1728 C.2     
   4 N4             1.3790     3.5090     0.0077 N.pl3   
   5 C5             2.5136     1.6274    -0.1135 C.2     
   6 C6             3.4195     2.6796     0.1034 C.2     
   7 N7             2.7378     3.8040     0.1755 N.2     
   8 C8             4.8915     2.5460     0.2330 C.ar    
   9 C9             5.6712     3.6803     0.4473 C.ar    
  10 N10            5.4526     1.3468     0.1491 N.ar    
  11 C11            6.7553     1.1842     0.2586 C.ar    
  12 C12            7.5915     2.2685     0.4669 C.ar    
  13 C13            7.0430     3.5414     0.5664 C.ar    
  14 C14            0.2790     4.4765     0.0230 C.3     
  15 C15           -0.1670     4.7077     1.4438 C.2     
  16 N16           -1.1738     5.5653     1.7030 N.am    
  17 O17            0.3802     4.1220     2.3541 O.2     
  18 C18           -1.6247     5.8056     3.0823 C.3     
  19 C19           -1.6540     7.3178     3.3284 C.3     
  20 N20           -2.4652     7.9643     2.2882 N.3     
  21 C21           -1.8714     7.7791     0.9574 C.3     
  22 C22           -1.8469     6.2904     0.6147 C.3     
  23 C23           -2.6500     9.3094     2.5669 C.ar    
  24 N24           -2.1203     9.8516     3.6612 N.ar    
  25 C25           -2.2915    11.1295     3.9323 C.ar    
  26 N26           -2.9873    11.9216     3.1423 N.ar    
  27 C27           -3.5484    11.4556     2.0297 C.ar    
  28 C28           -3.3879    10.1153     1.7032 C.ar    
  29 C29           -2.3857     1.2573    -0.1697 C.ar    
  30 C30           -2.3572     0.0210    -0.7900 C.ar    
  31 C31           -1.1556    -0.5211    -1.2098 C.ar    
  32 C32            0.0232     0.1670    -1.0074 C.ar    
  33 F33            8.9260     2.0899     0.5781 F       
  34 C34            7.9225     4.7440     0.7923 C.3     
  35 O35           -4.2625    12.2786     1.2234 O.3     
  36 C36           -4.3757    13.6446     1.6274 C.3     
  37 H37           -1.2379     2.9225     0.5182 H       
  38 H38            2.7647     0.5819    -0.2145 H       
  39 H39            5.2115     4.6549     0.5193 H       
  40 H40            7.1767     0.1925     0.1854 H       
  41 H41            0.6172     5.4181    -0.4094 H       
  42 H42           -0.5552     4.0875    -0.5609 H       
  43 H43           -2.6245     5.3930     3.2178 H       
  44 H44           -0.9333     5.3343     3.7808 H       
  45 H45           -2.0901     7.5186     4.3069 H       
  46 H46           -0.6382     7.7116     3.2946 H       
  47 H47           -2.4651     8.3145     0.2165 H       
  48 H48           -0.8526     8.1665     0.9566 H       
  49 H49           -1.3049     6.1384    -0.3187 H       
  50 H50           -2.8674     5.9212     0.5130 H       
  51 H51           -1.8489    11.5395     4.8281 H       
  52 H52           -3.8305     9.7067     0.8068 H       
  53 H53           -3.3268     1.6749     0.1564 H       
  54 H54           -3.2767    -0.5233    -0.9469 H       
  55 H55           -1.1397    -1.4870    -1.6928 H       
  56 H56            0.9606    -0.2571    -1.3358 H       
  57 H57            8.2305     5.1547    -0.1693 H       
  58 H58            7.3687     5.4997     1.3495 H       
  59 H59            8.8045     4.4476     1.3601 H       
  60 H60           -4.9706    14.1917     0.8960 H       
  61 H61           -4.8609    13.6962     2.6021 H       
  62 H62           -3.3820    14.0879     1.6922 H       
@<TRIPOS>BOND
   1    1    2 ar
   2    1    3 1
   3    1   32 ar
   4    2   29 ar
   5    2   37 1
   6    3    4 1
   7    3    5 2
   8    4   14 1
   9    4    7 1
  10    5    6 1
  11    5   38 1
  12    6    7 2
  13    6    8 1
  14    8    9 ar
  15    8   10 ar
  16    9   13 ar
  17    9   39 1
  18   10   11 ar
  19   11   12 ar
  20   11   40 1
  21   12   13 ar
  22   12   33 1
  23   13   34 1
  24   14   15 1
  25   14   41 1
  26   14   42 1
  27   15   16 am
  28   15   17 2
  29   16   18 1
  30   16   22 1
  31   18   19 1
  32   18   43 1
  33   18   44 1
  34   19   20 1
  35   19   45 1
  36   19   46 1
  37   20   21 1
  38   20   23 1
  39   21   22 1
  40   21   47 1
  41   21   48 1
  42   22   49 1
  43   22   50 1
  44   23   24 ar
  45   23   28 ar
  46   24   25 ar
  47   25   26 ar
  48   25   51 1
  49   26   27 ar
  50   27   28 ar
  51   27   35 1
  52   28   52 1
  53   29   30 ar
  54   29   53 1
  55   30   31 ar
  56   30   54 1
  57   31   32 ar
  58   31   55 1
  59   32   56 1
  60   34   57 1
  61   34   58 1
  62   34   59 1
  63   35   36 1
  64   36   60 1
  65   36   61 1
  66   36   62 1

#	End of record

