#	Name: ASD03090518
#	Creating user name:	WinNT
#	Creation time:	15. 06. 2019 20:28

#	Modifying user name:	WinNT
#	Modification time:	15. 06. 2019 20:28

#	Program:	/corina/corina34_cracker 3.40 0067  02.08.2006

@<TRIPOS>MOLECULE
ASD03090518
  32   34    0    0    0
SMALL
NO_CHARGES


@<TRIPOS>ATOM
   1 C1            -0.0231     1.3814     0.1147 C.ar    
   2 C2             1.1683     2.0979     0.1088 C.ar    
   3 C3             2.3662     1.4131     0.2102 C.ar    
   4 C4             2.3310     0.0282     0.3144 C.ar    
   5 C5             1.1100    -0.6188     0.3138 C.ar    
   6 N6            -0.0160     0.0619     0.2157 N.ar    
   7 C7            -2.3900     1.3684    -0.0809 C.2     
   8 O8            -2.3652     0.1602    -0.1824 O.2     
   9 N9            -1.2376     2.0601     0.0191 N.am    
  10 C10           -3.7094     2.0965    -0.0668 C.3     
  11 N11           -7.9188    -1.6412    -0.2604 N.pl3   
  12 C12           -8.0931    -1.8672     1.0778 C.2     
  13 C13           -7.2218    -1.1295     1.7838 C.2     
  14 C14           -6.4242    -0.3689     0.8188 C.ar    
  15 C15           -5.3820     0.5533     0.9337 C.ar    
  16 C16           -4.8338     1.1010    -0.1916 C.ar    
  17 C17           -5.3047     0.7481    -1.4490 C.ar    
  18 C18           -6.3322    -0.1592    -1.5852 C.ar    
  19 C19           -6.9052    -0.7294    -0.4529 C.ar    
  20 Cl20           3.8050    -0.8798     0.4435 Cl      
  21 H21            1.1589     3.1747     0.0259 H       
  22 H22            3.3073     1.9430     0.2079 H       
  23 H23            1.0769    -1.6953     0.3943 H       
  24 H24           -1.2529     3.0300     0.0246 H       
  25 H25           -3.8118     2.6448     0.8697 H       
  26 H26           -3.7480     2.7949    -0.9028 H       
  27 H27           -8.4302    -2.0636    -0.9681 H       
  28 H28           -8.8238    -2.5393     1.5031 H       
  29 H29           -7.1267    -1.1019     2.8593 H       
  30 H30           -5.0111     0.8332     1.9086 H       
  31 H31           -4.8612     1.1896    -2.3292 H       
  32 H32           -6.6918    -0.4270    -2.5678 H       
@<TRIPOS>BOND
   1    1    2 ar
   2    1    6 ar
   3    1    9 1
   4    2    3 ar
   5    2   21 1
   6    3    4 ar
   7    3   22 1
   8    4    5 ar
   9    4   20 1
  10    5    6 ar
  11    5   23 1
  12    7    8 2
  13    7    9 am
  14    7   10 1
  15    9   24 1
  16   10   16 1
  17   10   25 1
  18   10   26 1
  19   11   12 1
  20   11   19 1
  21   11   27 1
  22   12   13 2
  23   12   28 1
  24   13   14 1
  25   13   29 1
  26   14   15 ar
  27   14   19 ar
  28   15   16 ar
  29   15   30 1
  30   16   17 ar
  31   17   18 ar
  32   17   31 1
  33   18   19 ar
  34   18   32 1

#	End of record

