#	Name: ASD01916124
#	Creating user name:	WinNT
#	Creation time:	15. 06. 2019 20:06

#	Modifying user name:	WinNT
#	Modification time:	15. 06. 2019 20:06

#	Program:	/corina/corina34_cracker 3.40 0067  02.08.2006

@<TRIPOS>MOLECULE
ASD01916124
  44   47    0    0    0
SMALL
NO_CHARGES


@<TRIPOS>ATOM
   1 C1             0.0782     1.3897    -0.0546 C.ar    
   2 C2             0.0833     0.0082    -0.0549 C.ar    
   3 C3             1.2880    -0.6798    -0.0529 C.ar    
   4 C4             2.4848     0.0218    -0.0508 C.ar    
   5 C5             2.4743     1.4032    -0.0505 C.ar    
   6 C6             1.2724     2.0866    -0.0524 C.ar    
   7 O7             1.2957    -2.0388    -0.0527 O.3     
   8 C8             2.5726    -2.6803    -0.0507 C.3     
   9 C9             2.3836    -4.1754    -0.0508 C.2     
  10 C10            1.1545    -4.8474    -0.0525 C.2     
  11 N11            3.3405    -5.0702    -0.0549 N.2     
  12 N12            2.7521    -6.3378    -0.0578 N.pl3   
  13 C13            1.4095    -6.1694    -0.0513 C.2     
  14 C14            3.4349    -7.6344    -0.0754 C.3     
  15 C15            2.4617    -8.7242     0.3871 C.3     
  16 N16            1.1723    -8.5445    -0.2974 N.am    
  17 C17            0.4153    -7.3063    -0.0382 C.3     
  18 C18            0.6971    -9.4825    -1.1404 C.2     
  19 C19           -0.6581    -9.3420    -1.7148 C.ar    
  20 O20            1.3826   -10.4441    -1.4285 O.2     
  21 C21           -0.9157    -9.7760    -3.0158 C.ar    
  22 C22           -2.1844    -9.6426    -3.5476 C.ar    
  23 C23           -3.1993    -9.0793    -2.7916 C.ar    
  24 C24           -2.9490    -8.6462    -1.4997 C.ar    
  25 C25           -1.6855    -8.7800    -0.9559 C.ar    
  26 F26           -3.9433    -8.0973    -0.7681 F       
  27 F27           -2.4351   -10.0621    -4.8071 F       
  28 H28           -0.8593     1.9257    -0.0607 H       
  29 H29           -0.8497    -0.5357    -0.0562 H       
  30 H30            3.4240    -0.5115    -0.0489 H       
  31 H31            3.4058     1.9498    -0.0485 H       
  32 H32            1.2663     3.1666    -0.0522 H       
  33 H33            3.1293    -2.3844    -0.9399 H       
  34 H34            3.1266    -2.3842     0.8401 H       
  35 H35            0.1774    -4.3874    -0.0546 H       
  36 H36            3.7729    -7.8541    -1.0881 H       
  37 H37            4.2926    -7.6033     0.5966 H       
  38 H38            2.8701    -9.7047     0.1425 H       
  39 H39            2.3155    -8.6483     1.4646 H       
  40 H40           -0.0678    -7.3631     0.9372 H       
  41 H41           -0.3330    -7.1581    -0.8168 H       
  42 H42           -0.1251   -10.2151    -3.6062 H       
  43 H43           -4.1893    -8.9769    -3.2110 H       
  44 H44           -1.4915    -8.4424     0.0514 H       
@<TRIPOS>BOND
   1    1    2 ar
   2    1    6 ar
   3    1   28 1
   4    2    3 ar
   5    2   29 1
   6    3    4 ar
   7    3    7 1
   8    4    5 ar
   9    4   30 1
  10    5    6 ar
  11    5   31 1
  12    6   32 1
  13    7    8 1
  14    8    9 1
  15    8   33 1
  16    8   34 1
  17    9   10 1
  18    9   11 2
  19   10   13 2
  20   10   35 1
  21   11   12 1
  22   12   13 1
  23   12   14 1
  24   13   17 1
  25   14   15 1
  26   14   36 1
  27   14   37 1
  28   15   16 1
  29   15   38 1
  30   15   39 1
  31   16   17 1
  32   16   18 am
  33   17   40 1
  34   17   41 1
  35   18   19 1
  36   18   20 2
  37   19   21 ar
  38   19   25 ar
  39   21   22 ar
  40   21   42 1
  41   22   23 ar
  42   22   27 1
  43   23   24 ar
  44   23   43 1
  45   24   25 ar
  46   24   26 1
  47   25   44 1

#	End of record

