#	Name: ASD01811355
#	Creating user name:	WinNT
#	Creation time:	15. 06. 2019 19:26

#	Modifying user name:	WinNT
#	Modification time:	15. 06. 2019 19:26

#	Program:	/corina/corina34_cracker 3.40 0067  02.08.2006

@<TRIPOS>MOLECULE
ASD01811355
  65   68    0    0    0
SMALL
NO_CHARGES


@<TRIPOS>ATOM
   1 C1            -0.9496     1.1999     0.6226 C.2     
   2 N2            -0.9282    -0.1351     0.4389 N.am    
   3 O3            -0.7897     1.6628     1.7347 O.2     
   4 O4            -1.1426     2.0211    -0.4272 O.3     
   5 C5            -1.2288     3.3517    -0.1623 C.ar    
   6 C6            -2.4443     4.0042    -0.2833 C.ar    
   7 C7            -2.5283     5.3694    -0.0101 C.ar    
   8 C8            -1.3861     6.0690     0.3836 C.ar    
   9 C9            -0.1802     5.4091     0.5010 C.ar    
  10 C10           -0.0996     4.0545     0.2348 C.ar    
  11 C11           -1.4703     7.5442     0.6798 C.3     
  12 C12           -3.8224     6.0733    -0.1374 C.2     
  13 O13           -4.2533     6.7260     0.7930 O.2     
  14 N14           -4.5240     5.9912    -1.2852 N.am    
  15 C15           -5.7678     6.7539    -1.4584 C.3     
  16 C16           -5.6647     7.5798    -2.7445 C.3     
  17 C17           -5.3272     6.6535    -3.9151 C.3     
  18 C18           -3.9755     5.9816    -3.6629 C.3     
  19 C19           -4.0565     5.1420    -2.3893 C.3     
  20 F20           -6.3191     5.6744    -4.0357 F       
  21 C21           -5.2585     7.4575    -5.1879 C.ar    
  22 C22           -5.2775     6.8125    -6.4118 C.ar    
  23 C23           -5.2149     7.5423    -7.5807 C.ar    
  24 C24           -5.1327     8.9351    -7.5268 C.ar    
  25 C25           -5.1144     9.5796    -6.2882 C.ar    
  26 C26           -5.1825     8.8377    -5.1272 C.ar    
  27 C27           -5.0669     9.6991    -8.7362 C.1     
  28 N28           -5.0147    10.3052    -9.6956 N.1     
  29 N29           -2.0132    -2.7633     2.6694 N.am    
  30 C30           -2.0474    -1.3443     2.2863 C.3     
  31 C31           -0.7122    -1.0282     1.5799 C.3     
  32 C32           -0.2331    -2.4242     1.1014 C.3     
  33 C33           -0.7166    -3.3327     2.2592 C.3     
  34 C34           -3.0012    -3.4315     3.2969 C.2     
  35 O35           -4.0280    -2.8581     3.5932 O.2     
  36 C36           -2.8301    -4.8911     3.6305 C.3     
  37 H37           -1.0558    -0.5046    -0.4489 H       
  38 H38           -3.3244     3.4577    -0.5886 H       
  39 H39            0.7028     5.9514     0.8053 H       
  40 H40            0.8462     3.5423     0.3324 H       
  41 H41           -1.6257     7.6919     1.7485 H       
  42 H42           -0.5421     8.0290     0.3772 H       
  43 H43           -2.3038     7.9786     0.1279 H       
  44 H44           -6.6107     6.0666    -1.5320 H       
  45 H45           -5.9098     7.4196    -0.6071 H       
  46 H46           -6.6164     8.0757    -2.9357 H       
  47 H47           -4.8797     8.3279    -2.6345 H       
  48 H48           -3.7249     5.3401    -4.5077 H       
  49 H49           -3.2064     6.7448    -3.5442 H       
  50 H50           -3.0697     4.7445    -2.1520 H       
  51 H51           -4.7569     4.3206    -2.5404 H       
  52 H52           -5.3411     5.7351    -6.4520 H       
  53 H53           -5.2290     7.0374    -8.5354 H       
  54 H54           -5.0510    10.6566    -6.2394 H       
  55 H55           -5.1726     9.3352    -4.1686 H       
  56 H56           -2.8789    -1.1642     1.6049 H       
  57 H57           -2.1526    -0.7227     3.1754 H       
  58 H58            0.0005    -0.5919     2.2798 H       
  59 H59           -0.7117    -2.7006     0.1619 H       
  60 H60            0.8525    -2.4541     1.0086 H       
  61 H61           -0.0090    -3.3003     3.0877 H       
  62 H62           -0.8457    -4.3568     1.9093 H       
  63 H63           -1.9695    -5.0151     4.2879 H       
  64 H64           -3.7261    -5.2567     4.1321 H       
  65 H65           -2.6708    -5.4573     2.7128 H       
@<TRIPOS>BOND
   1    1    2 am
   2    1    3 2
   3    1    4 1
   4    2   31 1
   5    2   37 1
   6    4    5 1
   7    5    6 ar
   8    5   10 ar
   9    6    7 ar
  10    6   38 1
  11    7    8 ar
  12    7   12 1
  13    8    9 ar
  14    8   11 1
  15    9   10 ar
  16    9   39 1
  17   10   40 1
  18   11   41 1
  19   11   42 1
  20   11   43 1
  21   12   13 2
  22   12   14 am
  23   14   15 1
  24   14   19 1
  25   15   16 1
  26   15   44 1
  27   15   45 1
  28   16   17 1
  29   16   46 1
  30   16   47 1
  31   17   18 1
  32   17   20 1
  33   17   21 1
  34   18   19 1
  35   18   48 1
  36   18   49 1
  37   19   50 1
  38   19   51 1
  39   21   22 ar
  40   21   26 ar
  41   22   23 ar
  42   22   52 1
  43   23   24 ar
  44   23   53 1
  45   24   25 ar
  46   24   27 1
  47   25   26 ar
  48   25   54 1
  49   26   55 1
  50   27   28 3
  51   29   30 1
  52   29   33 1
  53   29   34 am
  54   30   31 1
  55   30   56 1
  56   30   57 1
  57   31   32 1
  58   31   58 1
  59   32   33 1
  60   32   59 1
  61   32   60 1
  62   33   61 1
  63   33   62 1
  64   34   35 2
  65   34   36 1
  66   36   63 1
  67   36   64 1
  68   36   65 1

#	End of record

