#	Name: ASD05763003
#	Creating user name:	WinNT
#	Creation time:	15. 06. 2019 21:03

#	Modifying user name:	WinNT
#	Modification time:	15. 06. 2019 21:03

#	Program:	/corina/corina34_cracker 3.40 0067  02.08.2006

@<TRIPOS>MOLECULE
ASD05763003
 223  223    0    0    0
SMALL
NO_CHARGES


@<TRIPOS>ATOM
   1 C1            -1.7560    -0.4610     5.7168 C.2     
   2 O2            -2.0110    -1.6424     5.6166 O.2     
   3 N3             0.3233    -1.1321     6.7802 N.3     
   4 C4            -0.3719    -0.0202     6.1182 C.3     
   5 C5             0.4104     0.4011     4.8726 C.3     
   6 C6             1.7697     0.9652     5.2907 C.3     
   7 C7             2.5520     1.3865     4.0452 C.3     
   8 C8             3.9113     1.9507     4.4633 C.3     
   9 N9             4.6604     2.3541     3.2706 N.am    
  10 C10           -4.7172     1.1270     4.2770 C.2     
  11 O11           -4.1263     2.1647     4.0651 O.2     
  12 N12           -2.7090     0.4579     5.4639 N.am    
  13 C13           -4.0529     0.0296     5.0679 C.3     
  14 C14           -4.8815    -0.2712     6.3184 C.3     
  15 C15           -4.2762    -1.4674     7.0557 C.3     
  16 C16           -5.1048    -1.7682     8.3062 C.3     
  17 C17           -4.4996    -2.9645     9.0435 C.3     
  18 N18           -5.2952    -3.2533    10.2442 N.3     
  19 C19           -8.1105     1.8877     3.1501 C.2     
  20 O20           -8.5905     0.9893     3.8085 O.2     
  21 N21           -5.9680     0.9553     3.8053 N.am    
  22 C22           -6.6138     2.0221     3.0365 C.3     
  23 C23           -6.2020     1.9127     1.5670 C.3     
  24 C24           -4.6999     2.1730     1.4376 C.3     
  25 C25           -4.2881     2.0636    -0.0319 C.3     
  26 N26           -2.8498     2.3128    -0.1558 N.pl3   
  27 C27           -2.2483     2.2679    -1.3913 C.2     
  28 N28           -0.9686     2.4896    -1.5016 N.2     
  29 N29           -2.9966     1.9891    -2.5104 N.pl3   
  30 C30          -11.0247     3.2726     1.4318 C.2     
  31 O31          -10.4021     4.0557     0.7462 O.2     
  32 N32           -8.9157     2.7659     2.5202 N.am    
  33 C33          -10.3707     2.6353     2.6306 C.3     
  34 C34          -10.8502     3.3338     3.9046 C.3     
  35 C35          -10.2797     2.6124     5.1273 C.3     
  36 C36          -10.3715     4.7870     3.9005 C.3     
  37 C37          -14.4587     3.6412     0.2341 C.2     
  38 O38          -14.9435     2.8647     1.0297 O.2     
  39 N39          -12.3014     2.9723     1.1215 N.am    
  40 C40          -12.9680     3.6624     0.0145 C.3     
  41 C41          -12.6362     2.9553    -1.3011 C.3     
  42 C42          -11.1328     3.0533    -1.5678 C.3     
  43 C43          -13.0422     1.4832    -1.2053 C.3     
  44 C44          -17.3696     4.9565    -1.5435 C.2     
  45 O45          -16.6917     5.3762    -2.4574 O.2     
  46 N46          -15.2533     4.4853    -0.4535 N.am    
  47 C47          -16.7087     4.4043    -0.3068 C.3     
  48 C48          -17.1446     5.2202     0.9119 C.3     
  49 C49          -16.5825     4.5946     2.1624 C.ar    
  50 C50          -15.3430     4.9851     2.6336 C.ar    
  51 C51          -14.8274     4.4112     3.7806 C.ar    
  52 C52          -15.5515     3.4471     4.4567 C.ar    
  53 C53          -16.7914     3.0573     3.9860 C.ar    
  54 C54          -17.3089     3.6343     2.8414 C.ar    
  55 C55          -20.7396     6.0095    -2.4908 C.2     
  56 O56          -21.1483     5.9186    -1.3525 O.2     
  57 N57          -18.7141     4.9838    -1.6339 N.am    
  58 C58          -19.3566     5.5205    -2.8361 C.3     
  59 C59          -19.4541     4.4216    -3.8961 C.3     
  60 C60          -23.8002     5.7242    -3.2985 C.2     
  61 O61          -23.3316     4.6589    -3.6396 O.2     
  62 N62          -21.5223     6.5478    -3.4468 N.am    
  63 C63          -22.9036     6.9246    -3.1365 C.3     
  64 C64          -23.3567     8.0320    -4.0900 C.3     
  65 C65          -22.5198     9.2644    -3.8624 C.2     
  66 O66          -21.7199     9.2928    -2.9573 O.2     
  67 O67          -22.6630    10.3306    -4.6651 O.3     
  68 C68          -27.4001     5.1262    -3.5133 C.2     
  69 O69          -27.6493     6.3112    -3.5826 O.2     
  70 N70          -25.1229     5.8346    -3.0643 N.am    
  71 C71          -25.9945     4.6676    -3.2218 C.3     
  72 C72          -25.9836     3.8451    -1.9318 C.3     
  73 C73          -24.5823     3.2755    -1.7020 C.3     
  74 S74          -24.5694     2.3003    -0.1725 S.3     
  75 C75          -22.8539     1.7190    -0.0737 C.3     
  76 C76          -30.7222     3.6013    -3.5478 C.2     
  77 O77          -30.3160     2.5718    -3.0517 O.2     
  78 N78          -28.3803     4.2196    -3.6970 N.am    
  79 C79          -29.7468     4.6655    -3.9803 C.3     
  80 C80          -29.8999     4.9179    -5.4816 C.3     
  81 C81          -28.9996     6.0830    -5.8973 C.3     
  82 C82          -29.1527     6.3354    -7.3985 C.3     
  83 C83          -28.2524     7.5006    -7.8142 C.3     
  84 N84          -28.3994     7.7429    -9.2556 N.3     
  85 C85          -34.3999     3.2177    -3.5833 C.2     
  86 O86          -34.5908     4.3019    -4.0921 O.2     
  87 N87          -32.0460     3.7936    -3.7123 N.am    
  88 C88          -32.9943     2.7591    -3.2918 C.3     
  89 C89          -37.7707     2.1689    -2.6340 C.2     
  90 O90          -37.3540     1.3757    -1.8165 O.2     
  91 N91          -35.4449     2.4229    -3.2785 N.am    
  92 C92          -36.8113     2.8688    -3.5618 C.3     
  93 C93          -37.1671     2.5328    -5.0115 C.3     
  94 C94          -36.2740     3.3398    -5.9560 C.3     
  95 C95          -36.5426     2.9133    -7.4005 C.3     
  96 C96          -36.5811     4.8304    -5.7988 C.3     
  97 C97          -41.3903     1.6935    -2.4451 C.2     
  98 O98          -41.5667     2.1764    -3.5385 O.2     
  99 N99          -39.0917     2.4243    -2.7126 N.am    
 100 C100         -40.0243     1.7439    -1.8106 C.3     
 101 C101         -40.1042     2.5087    -0.4880 C.3     
 102 O102         -40.6737     3.7991    -0.7175 O.3     
 103 O103         -42.4109     1.1122    -1.7955 O.3     
 104 O104           6.3837     3.0240     4.4967 O.2     
 105 C105           5.8939     2.8825     3.3963 C.2     
 106 C106           6.6644     3.2974     2.1695 C.3     
 107 H107          -0.1386    -1.3863     7.6405 H       
 108 H108           0.4029    -1.9270     6.1639 H       
 109 H109          -0.4440     0.8235     6.8046 H       
 110 H110           0.5592    -0.4645     4.2270 H       
 111 H111          -0.1496     1.1648     4.3330 H       
 112 H112           1.6209     1.8308     5.9363 H       
 113 H113           2.3296     0.2015     5.8304 H       
 114 H114           2.7008     0.5210     3.3996 H       
 115 H115           1.9921     2.1503     3.5055 H       
 116 H116           3.7625     2.8162     5.1088 H       
 117 H117           4.4713     1.1869     5.0029 H       
 118 H118           4.2686     2.2408     2.3905 H       
 119 H119          -2.5051     1.4029     5.5441 H       
 120 H120          -3.9819    -0.8685     4.4543 H       
 121 H121          -4.8784     0.5993     6.9743 H       
 122 H122          -5.9060    -0.5038     6.0281 H       
 123 H123          -4.2793    -2.3380     6.3998 H       
 124 H124          -3.2517    -1.2348     7.3460 H       
 125 H125          -5.1018    -0.8977     8.9622 H       
 126 H126          -6.1294    -2.0008     8.0159 H       
 127 H127          -4.5026    -3.8350     8.3876 H       
 128 H128          -3.4750    -2.7318     9.3338 H       
 129 H129          -6.2636    -3.4089    10.0075 H       
 130 H130          -4.9154    -4.0400    10.7490 H       
 131 H131          -6.4406     0.1253     3.9748 H       
 132 H132          -6.3051     2.9909     3.4292 H       
 133 H133          -6.4305     0.9124     1.1991 H       
 134 H134          -6.7504     2.6497     0.9803 H       
 135 H135          -4.4714     3.1733     1.8055 H       
 136 H136          -4.1516     1.4360     2.0244 H       
 137 H137          -4.5166     1.0634    -0.3998 H       
 138 H138          -4.8364     2.8006    -0.6187 H       
 139 H139          -2.3218     2.5095     0.6338 H       
 140 H140          -0.5442     2.4579    -2.3732 H       
 141 H141          -3.9489     1.8241    -2.4284 H       
 142 H142          -2.5722     1.9574    -3.3821 H       
 143 H143          -8.5318     3.4845     1.9936 H       
 144 H144         -10.6386     1.5796     2.6723 H       
 145 H145         -11.9392     3.3101     3.9440 H       
 146 H146          -9.1907     2.6361     5.0879 H       
 147 H147         -10.6214     3.1100     6.0349 H       
 148 H148         -10.6208     1.5771     5.1302 H       
 149 H149         -10.8419     5.3222     3.0757 H       
 150 H150         -10.6430     5.2616     4.8434 H       
 151 H151          -9.2885     4.8124     3.7795 H       
 152 H152         -12.7789     2.2992     1.6312 H       
 153 H153         -12.6221     4.6951    -0.0308 H       
 154 H154         -13.1816     3.4303    -2.1165 H       
 155 H155         -10.5931     2.4645    -0.8262 H       
 156 H156         -10.9149     2.6701    -2.5647 H       
 157 H157         -10.8195     4.0953    -1.5025 H       
 158 H158         -14.1133     1.4134    -1.0153 H       
 159 H159         -12.8059     0.9794    -2.1425 H       
 160 H160         -12.4968     1.0082    -0.3898 H       
 161 H161         -14.8615     5.1463    -1.0455 H       
 162 H162         -17.0029     3.3636    -0.1715 H       
 163 H163         -16.7733     6.2407     0.8177 H       
 164 H164         -18.2330     5.2334     0.9699 H       
 165 H165         -14.7773     5.7383     2.1053 H       
 166 H166         -13.8587     4.7158     4.1483 H       
 167 H167         -15.1483     2.9982     5.3524 H       
 168 H168         -17.3569     2.3038     4.5141 H       
 169 H169         -18.2792     3.3323     2.4757 H       
 170 H170         -19.2563     4.6481    -0.9030 H       
 171 H171         -18.7649     6.3491    -3.2252 H       
 172 H172         -18.4538     4.0679    -4.1459 H       
 173 H173         -20.0459     3.5930    -3.5071 H       
 174 H174         -19.9322     4.8209    -4.7906 H       
 175 H175         -21.1711     6.6858    -4.3404 H       
 176 H176         -22.9600     7.2842    -2.1090 H       
 177 H177         -23.2364     7.6963    -5.1200 H       
 178 H178         -24.4051     8.2653    -3.9039 H       
 179 H179         -22.1043    11.0978    -4.4799 H       
 180 H180         -25.4977     6.6866    -2.7915 H       
 181 H181         -25.6341     4.0537    -4.0473 H       
 182 H182         -26.2588     4.4829    -1.0919 H       
 183 H183         -26.6989     3.0270    -2.0165 H       
 184 H184         -24.3071     2.6377    -2.5419 H       
 185 H185         -23.8670     4.0936    -1.6173 H       
 186 H186         -22.6219     1.1201    -0.9543 H       
 187 H187         -22.1818     2.5760    -0.0297 H       
 188 H188         -22.7271     1.1115     0.8225 H       
 189 H189         -28.1810     3.2719    -3.6415 H       
 190 H190         -29.9488     5.5870    -3.4345 H       
 191 H191         -29.6121     4.0221    -6.0318 H       
 192 H192         -30.9382     5.1634    -5.7047 H       
 193 H193         -29.2874     6.9788    -5.3470 H       
 194 H194         -27.9613     5.8374    -5.6742 H       
 195 H195         -28.8649     5.4396    -7.9488 H       
 196 H196         -30.1910     6.5810    -7.6216 H       
 197 H197         -28.5402     8.3964    -7.2639 H       
 198 H198         -27.2141     7.2550    -7.5911 H       
 199 H199         -29.3647     7.9093    -9.4977 H       
 200 H200         -27.8144     8.5085    -9.5551 H       
 201 H201         -32.3709     4.6169    -4.1090 H       
 202 H202         -32.8852     2.5792    -2.2223 H       
 203 H203         -32.7922     1.8375    -3.8376 H       
 204 H204         -35.2922     1.5558    -2.8715 H       
 205 H205         -36.8807     3.9461    -3.4110 H       
 206 H206         -37.0123     1.4681    -5.1862 H       
 207 H207         -38.2117     2.7833    -5.1966 H       
 208 H208         -35.2277     3.1566    -5.7116 H       
 209 H209         -37.5890     3.0964    -7.6449 H       
 210 H210         -35.9064     3.4882    -8.0734 H       
 211 H211         -36.3239     1.8513    -7.5125 H       
 212 H212         -36.3897     5.1343    -4.7697 H       
 213 H213         -35.9448     5.4053    -6.4717 H       
 214 H214         -37.6274     5.0136    -6.0432 H       
 215 H215         -39.4249     3.0586    -3.3664 H       
 216 H216         -39.6732     0.7292    -1.6230 H       
 217 H217         -40.7281     1.9559     0.2143 H       
 218 H218         -39.1027     2.6223    -0.0728 H       
 219 H219         -40.7550     4.3406     0.0795 H       
 220 H220         -43.2683     1.1042    -2.2427 H       
 221 H221           6.0676     3.0956     1.2800 H       
 222 H222           6.8871     4.3631     2.2235 H       
 223 H223           7.5959     2.7338     2.1175 H       
@<TRIPOS>BOND
   1    1    2 2
   2    1    4 1
   3    1   12 am
   4    3    4 1
   5    3  107 1
   6    3  108 1
   7    4    5 1
   8    4  109 1
   9    5    6 1
  10    5  110 1
  11    5  111 1
  12    6    7 1
  13    6  112 1
  14    6  113 1
  15    7    8 1
  16    7  114 1
  17    7  115 1
  18    8    9 1
  19    8  116 1
  20    8  117 1
  21    9  105 am
  22    9  118 1
  23   10   11 2
  24   10   13 1
  25   10   21 am
  26   12   13 1
  27   12  119 1
  28   13   14 1
  29   13  120 1
  30   14   15 1
  31   14  121 1
  32   14  122 1
  33   15   16 1
  34   15  123 1
  35   15  124 1
  36   16   17 1
  37   16  125 1
  38   16  126 1
  39   17   18 1
  40   17  127 1
  41   17  128 1
  42   18  129 1
  43   18  130 1
  44   19   20 2
  45   19   22 1
  46   19   32 am
  47   21   22 1
  48   21  131 1
  49   22   23 1
  50   22  132 1
  51   23   24 1
  52   23  133 1
  53   23  134 1
  54   24   25 1
  55   24  135 1
  56   24  136 1
  57   25   26 1
  58   25  137 1
  59   25  138 1
  60   26   27 1
  61   26  139 1
  62   27   28 2
  63   27   29 1
  64   28  140 1
  65   29  141 1
  66   29  142 1
  67   30   31 2
  68   30   33 1
  69   30   39 am
  70   32   33 1
  71   32  143 1
  72   33   34 1
  73   33  144 1
  74   34   35 1
  75   34   36 1
  76   34  145 1
  77   35  146 1
  78   35  147 1
  79   35  148 1
  80   36  149 1
  81   36  150 1
  82   36  151 1
  83   37   38 2
  84   37   40 1
  85   37   46 am
  86   39   40 1
  87   39  152 1
  88   40   41 1
  89   40  153 1
  90   41   42 1
  91   41   43 1
  92   41  154 1
  93   42  155 1
  94   42  156 1
  95   42  157 1
  96   43  158 1
  97   43  159 1
  98   43  160 1
  99   44   45 2
 100   44   47 1
 101   44   57 am
 102   46   47 1
 103   46  161 1
 104   47   48 1
 105   47  162 1
 106   48   49 1
 107   48  163 1
 108   48  164 1
 109   49   50 ar
 110   49   54 ar
 111   50   51 ar
 112   50  165 1
 113   51   52 ar
 114   51  166 1
 115   52   53 ar
 116   52  167 1
 117   53   54 ar
 118   53  168 1
 119   54  169 1
 120   55   56 2
 121   55   58 1
 122   55   62 am
 123   57   58 1
 124   57  170 1
 125   58   59 1
 126   58  171 1
 127   59  172 1
 128   59  173 1
 129   59  174 1
 130   60   61 2
 131   60   63 1
 132   60   70 am
 133   62   63 1
 134   62  175 1
 135   63   64 1
 136   63  176 1
 137   64   65 1
 138   64  177 1
 139   64  178 1
 140   65   66 2
 141   65   67 1
 142   67  179 1
 143   68   69 2
 144   68   71 1
 145   68   78 am
 146   70   71 1
 147   70  180 1
 148   71   72 1
 149   71  181 1
 150   72   73 1
 151   72  182 1
 152   72  183 1
 153   73   74 1
 154   73  184 1
 155   73  185 1
 156   74   75 1
 157   75  186 1
 158   75  187 1
 159   75  188 1
 160   76   77 2
 161   76   79 1
 162   76   87 am
 163   78   79 1
 164   78  189 1
 165   79   80 1
 166   79  190 1
 167   80   81 1
 168   80  191 1
 169   80  192 1
 170   81   82 1
 171   81  193 1
 172   81  194 1
 173   82   83 1
 174   82  195 1
 175   82  196 1
 176   83   84 1
 177   83  197 1
 178   83  198 1
 179   84  199 1
 180   84  200 1
 181   85   86 2
 182   85   88 1
 183   85   91 am
 184   87   88 1
 185   87  201 1
 186   88  202 1
 187   88  203 1
 188   89   90 2
 189   89   92 1
 190   89   99 am
 191   91   92 1
 192   91  204 1
 193   92   93 1
 194   92  205 1
 195   93   94 1
 196   93  206 1
 197   93  207 1
 198   94   95 1
 199   94   96 1
 200   94  208 1
 201   95  209 1
 202   95  210 1
 203   95  211 1
 204   96  212 1
 205   96  213 1
 206   96  214 1
 207   97   98 2
 208   97  100 1
 209   97  103 1
 210   99  100 1
 211   99  215 1
 212  100  101 1
 213  100  216 1
 214  101  102 1
 215  101  217 1
 216  101  218 1
 217  102  219 1
 218  103  220 1
 219  104  105 2
 220  105  106 1
 221  106  221 1
 222  106  222 1
 223  106  223 1

#	End of record

