#	Name: ASD01912081
#	Creating user name:	WinNT
#	Creation time:	15. 06. 2019 19:59

#	Modifying user name:	WinNT
#	Modification time:	15. 06. 2019 19:59

#	Program:	/corina/corina34_cracker 3.40 0067  02.08.2006

@<TRIPOS>MOLECULE
ASD01912081
  59   62    0    0    0
SMALL
NO_CHARGES


@<TRIPOS>ATOM
   1 N1            -0.0194     1.6116    -0.3155 N.am    
   2 C2            -0.1500     0.1511    -0.4139 C.3     
   3 C3            -0.9799    -0.3480     0.7753 C.3     
   4 N4            -2.1989     0.4671     0.8724 N.am    
   5 C5            -2.0683     1.9276     0.9708 C.3     
   6 C6            -1.2382     2.4264    -0.2128 C.3     
   7 C7            -0.8605     3.8927     0.0065 C.3     
   8 C8            -2.0491     2.2888    -1.5029 C.3     
   9 C9             1.1965     2.1930    -0.3137 C.2     
  10 C10            2.4164     1.3567    -0.2704 C.2     
  11 O11            1.2910     3.4043    -0.3477 O.2     
  12 N12            2.4757     0.0190    -0.3624 N.2     
  13 N13            3.7187    -0.3153    -0.2807 N.2     
  14 N14            4.4307     0.7481    -0.1429 N.pl3   
  15 N15            3.6599     1.7810    -0.1395 N.2     
  16 C16            5.8270     0.7786    -0.0218 C.ar    
  17 C17            6.5533    -0.4045    -0.0462 C.ar    
  18 C18            6.4869     1.9922     0.1172 C.ar    
  19 C19            7.8627     2.0190     0.2359 C.ar    
  20 C20            8.5829     0.8387     0.2160 C.ar    
  21 C21            7.9289    -0.3713     0.0729 C.ar    
  22 C22           -3.4148    -0.1143     0.8706 C.2     
  23 C23           -3.5297    -1.5912     0.8410 C.ar    
  24 O24           -4.4168     0.5728     0.8933 O.2     
  25 N25           -2.4736    -2.3394     1.1345 N.ar    
  26 C26           -2.5333    -3.6532     1.1204 C.ar    
  27 C27           -3.7101    -4.3086     0.7957 C.ar    
  28 C28           -4.8377    -3.5655     0.4825 C.ar    
  29 C29           -4.7470    -2.1828     0.5111 C.ar    
  30 C30           -1.3049    -4.4567     1.4615 C.3     
  31 C31           -1.3368    -4.8325     2.9443 C.3     
  32 C32           -1.2764    -5.7298     0.6133 C.3     
  33 H33           -0.6523    -0.1093    -1.3456 H       
  34 H34            0.8387    -0.3072    -0.3881 H       
  35 H35           -1.2497    -1.3927     0.6204 H       
  36 H36           -0.4000    -0.2497     1.6930 H       
  37 H37           -3.0570     2.3859     0.9450 H       
  38 H38           -1.5659     2.1880     1.9025 H       
  39 H39           -0.1081     3.9605     0.7923 H       
  40 H40           -0.4583     4.3065    -0.9182 H       
  41 H41           -1.7459     4.4557     0.3017 H       
  42 H42           -2.9603     2.8817    -1.4243 H       
  43 H43           -1.4554     2.6448    -2.3449 H       
  44 H44           -2.3092     1.2418    -1.6587 H       
  45 H45            6.0431    -1.3498    -0.1579 H       
  46 H46            5.9250     2.9144     0.1321 H       
  47 H47            8.3766     2.9627     0.3440 H       
  48 H48            9.6587     0.8622     0.3083 H       
  49 H49            8.4941    -1.2915     0.0578 H       
  50 H50           -3.7485    -5.3879     0.7863 H       
  51 H51           -5.7666    -4.0529     0.2258 H       
  52 H52           -5.6057    -1.5726     0.2727 H       
  53 H53           -0.4140    -3.8633     1.2562 H       
  54 H54           -0.4483    -5.4137     3.1911 H       
  55 H55           -1.3571    -3.9256     3.5486 H       
  56 H56           -2.2277    -5.4259     3.1496 H       
  57 H57           -1.2536    -5.4621    -0.4431 H       
  58 H58           -0.3879    -6.3110     0.8600 H       
  59 H59           -2.1673    -6.3232     0.8186 H       
@<TRIPOS>BOND
   1    1    2 1
   2    1    9 am
   3    1    6 1
   4    2    3 1
   5    2   33 1
   6    2   34 1
   7    3    4 1
   8    3   35 1
   9    3   36 1
  10    4    5 1
  11    4   22 am
  12    5    6 1
  13    5   37 1
  14    5   38 1
  15    6    7 1
  16    6    8 1
  17    7   39 1
  18    7   40 1
  19    7   41 1
  20    8   42 1
  21    8   43 1
  22    8   44 1
  23    9   10 1
  24    9   11 2
  25   10   12 1
  26   10   15 2
  27   12   13 2
  28   13   14 1
  29   14   15 1
  30   14   16 1
  31   16   17 ar
  32   16   18 ar
  33   17   21 ar
  34   17   45 1
  35   18   19 ar
  36   18   46 1
  37   19   20 ar
  38   19   47 1
  39   20   21 ar
  40   20   48 1
  41   21   49 1
  42   22   23 1
  43   22   24 2
  44   23   25 ar
  45   23   29 ar
  46   25   26 ar
  47   26   27 ar
  48   26   30 1
  49   27   28 ar
  50   27   50 1
  51   28   29 ar
  52   28   51 1
  53   29   52 1
  54   30   31 1
  55   30   32 1
  56   30   53 1
  57   31   54 1
  58   31   55 1
  59   31   56 1
  60   32   57 1
  61   32   58 1
  62   32   59 1

#	End of record

