#	Name: ASD02560170
#	Creating user name:	WinNT
#	Creation time:	15. 06. 2019 20:24

#	Modifying user name:	WinNT
#	Modification time:	15. 06. 2019 20:24

#	Program:	/corina/corina34_cracker 3.40 0067  02.08.2006

@<TRIPOS>MOLECULE
ASD02560170
  59   63    0    0    0
SMALL
NO_CHARGES


@<TRIPOS>ATOM
   1 Br1            1.9043     2.5593    -1.3346 Br      
   2 N2             0.1380     1.3244     0.5061 N.2     
   3 N3            -0.0566     0.1243     0.2897 N.2     
   4 C4             1.5616     1.6628     0.3812 C.3     
   5 N5             2.2668     0.3572     0.4323 N.3     
   6 C6             1.1996    -0.5700    -0.0214 C.3     
   7 S7             1.2966    -2.1375     0.8865 S.3     
   8 C8             1.0721    -1.6243     2.6118 C.3     
   9 C9             1.0056    -2.8442     3.4942 C.2     
  10 O10            1.5295    -3.8789     3.1390 O.2     
  11 N11            0.3641    -2.7855     4.6780 N.am    
  12 C12            3.3493     0.3398    -0.4445 C.ar    
  13 C13            0.2504    -3.9339     5.4702 C.ar    
  14 C14           -0.8460    -4.0958     6.3090 C.ar    
  15 C15           -0.9550    -5.2311     7.0892 C.ar    
  16 C16            0.0255    -6.2051     7.0357 C.ar    
  17 C17            1.1170    -6.0465     6.2022 C.ar    
  18 C18            1.2296    -4.9163     5.4156 C.ar    
  19 Cl19          -2.0766    -2.8732     6.3767 Cl      
  20 S20           -0.1167    -7.6511     8.0324 S.o2    
  21 O21            1.2014    -8.1556     8.1979 O.2     
  22 O22           -0.9591    -7.3053     9.1233 O.2     
  23 C23            4.4035     1.2660    -0.2930 C.ar    
  24 C24            3.4034    -0.5861    -1.4648 C.ar    
  25 C25            4.4801    -0.6119    -2.3458 C.ar    
  26 C26            5.5080     0.2732    -2.2259 C.ar    
  27 C27            5.4941     1.2296    -1.1966 C.ar    
  28 C28            4.3913     2.2218     0.7348 C.ar    
  29 N29           -0.9413    -8.7796     7.1442 N.am    
  30 C30            6.6625     0.2234    -3.1932 C.3     
  31 C31            7.4748    -1.0715    -3.2575 C.3     
  32 C32            6.5305    -0.7032    -4.4036 C.3     
  33 C33            6.5412     2.1559    -1.0492 C.ar    
  34 C34            6.4956     3.0692    -0.0411 C.ar    
  35 C35            5.4252     3.1003     0.8506 C.ar    
  36 C36            2.2508    -0.7482     3.0408 C.3     
  37 H37            1.8754     2.2964     1.2108 H       
  38 H38            1.2804    -0.7460    -1.0940 H       
  39 H39            0.1456    -1.0578     2.7048 H       
  40 H40           -0.0189    -1.9474     4.9810 H       
  41 H41           -1.8063    -5.3578     7.7415 H       
  42 H42            1.8810    -6.8090     6.1632 H       
  43 H43            2.0827    -4.7935     4.7649 H       
  44 H44            2.6011    -1.2997    -1.5812 H       
  45 H45            4.5010    -1.3461    -3.1375 H       
  46 H46            3.5658     2.2605     1.4301 H       
  47 H47           -1.2414    -8.5658     6.2470 H       
  48 H48           -1.1241    -9.6545     7.5213 H       
  49 H49            7.1991     1.1617    -3.3334 H       
  50 H50            8.5459    -0.9851    -3.4404 H       
  51 H51            7.1743    -1.8874    -2.6002 H       
  52 H52            5.6087    -1.2767    -4.5002 H       
  53 H53            6.9803    -0.3744    -5.3405 H       
  54 H54            7.3777     2.1427    -1.7322 H       
  55 H55            7.3013     3.7797     0.0699 H       
  56 H56            5.4128     3.8353     1.6417 H       
  57 H57            2.1159    -0.4399     4.0776 H       
  58 H58            3.1774    -1.3148     2.9479 H       
  59 H59            2.2989     0.1341     2.4027 H       
@<TRIPOS>BOND
   1    1    4 1
   2    2    3 2
   3    2    4 1
   4    3    6 1
   5    4    5 1
   6    4   37 1
   7    5    6 1
   8    5   12 1
   9    6    7 1
  10    6   38 1
  11    7    8 1
  12    8    9 1
  13    8   36 1
  14    8   39 1
  15    9   10 2
  16    9   11 am
  17   11   13 1
  18   11   40 1
  19   12   23 ar
  20   12   24 ar
  21   13   14 ar
  22   13   18 ar
  23   14   15 ar
  24   14   19 1
  25   15   16 ar
  26   15   41 1
  27   16   17 ar
  28   16   20 1
  29   17   18 ar
  30   17   42 1
  31   18   43 1
  32   20   21 2
  33   20   22 2
  34   20   29 am
  35   23   27 ar
  36   23   28 ar
  37   24   25 ar
  38   24   44 1
  39   25   26 ar
  40   25   45 1
  41   26   27 ar
  42   26   30 1
  43   27   33 ar
  44   28   35 ar
  45   28   46 1
  46   29   47 1
  47   29   48 1
  48   30   31 1
  49   30   32 1
  50   30   49 1
  51   31   32 1
  52   31   50 1
  53   31   51 1
  54   32   52 1
  55   32   53 1
  56   33   34 ar
  57   33   54 1
  58   34   35 ar
  59   34   55 1
  60   35   56 1
  61   36   57 1
  62   36   58 1
  63   36   59 1

#	End of record

