#	Name: ASD01810797
#	Creating user name:	WinNT
#	Creation time:	15. 06. 2019 19:25

#	Modifying user name:	WinNT
#	Modification time:	15. 06. 2019 19:25

#	Program:	/corina/corina34_cracker 3.40 0067  02.08.2006

@<TRIPOS>MOLECULE
ASD01810797
  59   62    0    0    0
SMALL
NO_CHARGES


@<TRIPOS>ATOM
   1 C1             0.1901     1.5190    -0.3913 C.ar    
   2 C2             0.0231     0.2000     0.0200 C.ar    
   3 C3            -1.3316    -0.3997     0.0295 C.2     
   4 N4            -1.4765    -1.7384    -0.0286 N.am    
   5 O5            -2.3122     0.3155     0.0897 O.2     
   6 C6            -2.8049    -2.3537     0.0957 C.3     
   7 N7             1.0666    -0.5265     0.4037 N.ar    
   8 C8             2.2897    -0.0295     0.4093 C.ar    
   9 C9             2.5267     1.2843     0.0093 C.ar    
  10 C10            1.4634     2.0706    -0.3968 C.ar    
  11 N11            3.3559    -0.8277     0.8202 N.am    
  12 C12            3.1276    -2.0764     1.2729 C.2     
  13 C13           -2.7588    -3.4057     1.2083 C.3     
  14 C14           -1.6307    -4.3987     0.9195 C.3     
  15 C15           -0.2909    -3.6593     0.8981 C.3     
  16 C16           -0.3097    -2.6098    -0.2236 C.3     
  17 C17           -1.6041    -5.4549     1.9941 C.ar    
  18 C18           -1.7824    -6.7849     1.6570 C.ar    
  19 C19           -1.7588    -7.7569     2.6356 C.ar    
  20 C20           -1.5544    -7.3959     3.9688 C.ar    
  21 C21           -1.3752    -6.0518     4.3019 C.ar    
  22 C22           -1.3959    -5.0907     3.3126 C.ar    
  23 C23           -1.5292    -8.3995     4.9900 C.1     
  24 N24           -1.5092    -9.1957     5.8001 N.1     
  25 O25            2.0030    -2.5375     1.2436 O.2     
  26 N26            4.1459    -2.8141     1.7580 N.am    
  27 C27            3.8977    -4.1715     2.2500 C.3     
  28 C28            5.1842    -5.0227     2.1628 C.3     
  29 C29            3.5647    -4.1480     3.7583 C.3     
  30 O30            4.1972    -5.3306     4.2943 O.3     
  31 C31            5.4763    -5.4128     3.6287 C.3     
  32 C32            3.9265     1.8424     0.0187 C.3     
  33 H33           -0.6605     2.1049    -0.7068 H       
  34 H34           -3.5399    -1.5888     0.3463 H       
  35 H35           -3.0767    -2.8298    -0.8464 H       
  36 H36            1.6209     3.0916    -0.7117 H       
  37 H37            4.2623    -0.4844     0.7804 H       
  38 H38           -2.5763    -2.9160     2.1648 H       
  39 H39           -3.7099    -3.9367     1.2465 H       
  40 H40           -1.8008    -4.8701    -0.0485 H       
  41 H41           -0.1317    -3.1671     1.8576 H       
  42 H42            0.5144    -4.3708     0.7156 H       
  43 H43           -0.3774    -3.1091    -1.1901 H       
  44 H44            0.6015    -2.0132    -0.1811 H       
  45 H45           -1.9408    -7.0627     0.6254 H       
  46 H46           -1.8985    -8.7947     2.3712 H       
  47 H47           -1.2170    -5.7657     5.3313 H       
  48 H48           -1.2574    -4.0507     3.5688 H       
  49 H49            5.0431    -2.4462     1.7813 H       
  50 H50            3.0910    -4.6396     1.6859 H       
  51 H51            5.0129    -5.9128     1.5575 H       
  52 H52            6.0049    -4.4335     1.7535 H       
  53 H53            3.9770    -3.2530     4.2241 H       
  54 H54            2.4862    -4.1930     3.9096 H       
  55 H55            5.8663    -6.4293     3.6803 H       
  56 H56            6.1818    -4.7117     4.0745 H       
  57 H57            4.3975     1.6583    -0.9469 H       
  58 H58            3.8885     2.9156     0.2056 H       
  59 H59            4.5059     1.3571     0.8040 H       
@<TRIPOS>BOND
   1    1    2 ar
   2    1   10 ar
   3    1   33 1
   4    2    3 1
   5    2    7 ar
   6    3    4 am
   7    3    5 2
   8    4    6 1
   9    4   16 1
  10    6   13 1
  11    6   34 1
  12    6   35 1
  13    7    8 ar
  14    8    9 ar
  15    8   11 1
  16    9   10 ar
  17    9   32 1
  18   10   36 1
  19   11   12 am
  20   11   37 1
  21   12   25 2
  22   12   26 am
  23   13   14 1
  24   13   38 1
  25   13   39 1
  26   14   15 1
  27   14   17 1
  28   14   40 1
  29   15   16 1
  30   15   41 1
  31   15   42 1
  32   16   43 1
  33   16   44 1
  34   17   18 ar
  35   17   22 ar
  36   18   19 ar
  37   18   45 1
  38   19   20 ar
  39   19   46 1
  40   20   21 ar
  41   20   23 1
  42   21   22 ar
  43   21   47 1
  44   22   48 1
  45   23   24 3
  46   26   27 1
  47   26   49 1
  48   27   28 1
  49   27   29 1
  50   27   50 1
  51   28   31 1
  52   28   51 1
  53   28   52 1
  54   29   30 1
  55   29   53 1
  56   29   54 1
  57   30   31 1
  58   31   55 1
  59   31   56 1
  60   32   57 1
  61   32   58 1
  62   32   59 1

#	End of record

