#	Name: ASD01208581
#	Creating user name:	WinNT
#	Creation time:	15. 06. 2019 19:10

#	Modifying user name:	WinNT
#	Modification time:	15. 06. 2019 19:10

#	Program:	/corina/corina34_cracker 3.40 0067  02.08.2006

@<TRIPOS>MOLECULE
ASD01208581
  64   66    0    0    0
SMALL
NO_CHARGES


@<TRIPOS>ATOM
   1 N1            -0.2405     1.1493    -0.0037 N.pl3   
   2 C2            -0.2223    -0.2258    -0.0696 C.2     
   3 C3             1.0953    -0.6320    -0.1374 C.2     
   4 C4             1.8876     0.5143    -0.1123 C.2     
   5 C5             1.0459     1.6024    -0.0297 C.2     
   6 C6            -1.3959    -1.1042    -0.0675 C.2     
   7 O7            -1.2526    -2.3112    -0.1300 O.2     
   8 N8            -2.6334    -0.5752     0.0036 N.am    
   9 C9             1.4654     3.0190     0.0215 C.ar    
  10 C10            2.8210     3.3489    -0.0127 C.ar    
  11 C11            3.2098     4.6771     0.0350 C.ar    
  12 C12            2.2537     5.6795     0.1172 C.ar    
  13 C13            0.9050     5.3560     0.1516 C.ar    
  14 C14            0.5072     4.0300     0.0985 C.ar    
  15 O15           -0.0274     6.3414     0.2326 O.3     
  16 C16           -0.7793     6.4156     1.3594 C.ar    
  17 C17           -1.6742     7.4668     1.5324 C.ar    
  18 N18           -0.6670     5.4841     2.2954 N.ar    
  19 N19           -2.4040     7.5360     2.6297 N.ar    
  20 C20           -2.2854     6.6076     3.5640 C.ar    
  21 C21           -1.4013     5.5593     3.3925 C.ar    
  22 S22           -3.2612     6.7039     5.0279 S.o2    
  23 O23           -2.4986     6.0075     6.0039 O.2     
  24 O24           -3.5435     8.0893     5.1704 O.2     
  25 C25           -4.7724     5.7845     4.6258 C.3     
  26 O26            4.5297     4.9994     0.0016 O.3     
  27 C27            4.8565     6.3879    -0.0845 C.3     
  28 C28            6.1327     6.5611    -0.9104 C.3     
  29 C29            5.0792     6.9476     1.3219 C.3     
  30 O30            7.2303     5.9564    -0.2237 O.3     
  31 C31            8.4772     6.0625    -0.9136 C.3     
  32 C32           -3.8063    -1.4531     0.0057 C.3     
  33 C33           -5.0773    -0.6059     0.0932 C.3     
  34 C34           -6.3022    -1.5228     0.0953 C.3     
  35 O35           -7.4906    -0.7301     0.0595 O.3     
  36 O36           -5.0555     0.1627     1.2977 O.3     
  37 H37           -1.0351     1.7033     0.0481 H       
  38 H38            1.4476    -1.6511    -0.1983 H       
  39 H39            2.9665     0.5445    -0.1501 H       
  40 H40           -2.7476     0.3868     0.0535 H       
  41 H41            3.5658     2.5694    -0.0760 H       
  42 H42            2.5604     6.7143     0.1550 H       
  43 H43           -0.5430     3.7791     0.1207 H       
  44 H44           -1.7711     8.2254     0.7698 H       
  45 H45           -1.3103     4.8002     4.1553 H       
  46 H46           -4.5156     4.7553     4.3750 H       
  47 H47           -5.4422     5.7926     5.4857 H       
  48 H48           -5.2674     6.2531     3.7752 H       
  49 H49            4.0378     6.9248    -0.5638 H       
  50 H50            6.0044     6.0837    -1.8819 H       
  51 H51            6.3330     7.6233    -1.0512 H       
  52 H52            5.3285     8.0067     1.2562 H       
  53 H53            4.1700     6.8242     1.9103 H       
  54 H54            5.8979     6.4107     1.8012 H       
  55 H55            8.3975     5.5748    -1.8852 H       
  56 H56            8.7261     7.1143    -1.0545 H       
  57 H57            9.2590     5.5794    -0.3276 H       
  58 H58           -3.8229    -2.0394    -0.9131 H       
  59 H59           -3.7567    -2.1236     0.8637 H       
  60 H60           -5.1268     0.0645    -0.7648 H       
  61 H61           -6.2718    -2.1717    -0.7799 H       
  62 H62           -6.2987    -2.1316     0.9994 H       
  63 H63           -8.3081    -1.2466     0.0588 H       
  64 H64           -5.0117    -0.3701     2.1035 H       
@<TRIPOS>BOND
   1    1    2 1
   2    1    5 1
   3    1   37 1
   4    2    3 2
   5    2    6 1
   6    3    4 1
   7    3   38 1
   8    4    5 2
   9    4   39 1
  10    5    9 1
  11    6    7 2
  12    6    8 am
  13    8   32 1
  14    8   40 1
  15    9   10 ar
  16    9   14 ar
  17   10   11 ar
  18   10   41 1
  19   11   12 ar
  20   11   26 1
  21   12   13 ar
  22   12   42 1
  23   13   14 ar
  24   13   15 1
  25   14   43 1
  26   15   16 1
  27   16   17 ar
  28   16   18 ar
  29   17   19 ar
  30   17   44 1
  31   18   21 ar
  32   19   20 ar
  33   20   21 ar
  34   20   22 1
  35   21   45 1
  36   22   23 2
  37   22   24 2
  38   22   25 1
  39   25   46 1
  40   25   47 1
  41   25   48 1
  42   26   27 1
  43   27   28 1
  44   27   29 1
  45   27   49 1
  46   28   30 1
  47   28   50 1
  48   28   51 1
  49   29   52 1
  50   29   53 1
  51   29   54 1
  52   30   31 1
  53   31   55 1
  54   31   56 1
  55   31   57 1
  56   32   33 1
  57   32   58 1
  58   32   59 1
  59   33   34 1
  60   33   36 1
  61   33   60 1
  62   34   35 1
  63   34   61 1
  64   34   62 1
  65   35   63 1
  66   36   64 1

#	End of record

