#	Name: ASD01883056
#	Creating user name:	WinNT
#	Creation time:	15. 06. 2019 19:45

#	Modifying user name:	WinNT
#	Modification time:	15. 06. 2019 19:45

#	Program:	/corina/corina34_cracker 3.40 0067  02.08.2006

@<TRIPOS>MOLECULE
ASD01883056
  50   52    0    0    0
SMALL
NO_CHARGES


@<TRIPOS>ATOM
   1 N1            -0.0369     1.3787    -0.0061 N.am    
   2 C2            -0.0117     0.0331     0.0105 C.2     
   3 C3            -1.2260    -0.6963     0.0222 C.2     
   4 C4            -2.4400     0.0140     0.0160 C.2     
   5 C5            -2.3996     1.4224    -0.0015 C.2     
   6 C6            -1.2095     2.0638    -0.0069 C.2     
   7 O7             1.0551    -0.5573     0.0151 O.2     
   8 C8            -1.2176    -2.1282     0.0394 C.1     
   9 N9            -1.2110    -3.2641     0.0531 N.1     
  10 C10            1.2269     2.1197    -0.0176 C.3     
  11 C11           -3.7317    -0.7023     0.0272 C.ar    
  12 C12            1.6642     2.3598    -1.4640 C.3     
  13 C13            2.9159     3.2394    -1.4789 C.3     
  14 C14            3.3533     3.4795    -2.9253 C.3     
  15 C15            3.6642     2.1387    -3.5933 C.3     
  16 C16            2.4125     1.2590    -3.5784 C.3     
  17 C17            1.9752     1.0189    -2.1320 C.3     
  18 C18           -4.5897    -0.5817     1.1237 C.ar    
  19 C19           -5.7929    -1.2506     1.1312 C.ar    
  20 C20           -6.1549    -2.0468     0.0485 C.ar    
  21 C21           -5.3023    -2.1693    -1.0448 C.ar    
  22 C22           -4.1008    -1.4976    -1.0611 C.ar    
  23 N23           -7.3720    -2.7222     0.0593 N.pl3   
  24 C24           -8.2112    -2.7005     1.2599 C.3     
  25 C25           -7.8137    -3.4549    -1.1300 C.3     
  26 H26           -3.3189     1.9893    -0.0069 H       
  27 H27           -1.1909     3.1436    -0.0204 H       
  28 H28            1.0910     3.0775     0.4847 H       
  29 H29            1.9914     1.5421     0.5021 H       
  30 H30            0.8625     2.8594    -2.0078 H       
  31 H31            2.6944     4.1947    -1.0030 H       
  32 H32            3.7177     2.7398    -0.9351 H       
  33 H33            2.5516     3.9791    -3.4691 H       
  34 H34            4.2451     4.1062    -2.9360 H       
  35 H35            3.9758     2.3097    -4.6238 H       
  36 H36            4.4660     1.6391    -3.0495 H       
  37 H37            1.6108     1.7586    -4.1222 H       
  38 H38            2.6340     0.3037    -4.0543 H       
  39 H39            2.7769     0.5193    -1.5882 H       
  40 H40            1.0834     0.3922    -2.1213 H       
  41 H41           -4.3091     0.0353     1.9645 H       
  42 H42           -6.4564    -1.1578     1.9783 H       
  43 H43           -5.5858    -2.7881    -1.8833 H       
  44 H44           -3.4398    -1.5927    -1.9099 H       
  45 H45           -7.6807    -2.1918     2.0649 H       
  46 H46           -9.1393    -2.1708     1.0449 H       
  47 H47           -8.4380    -3.7225     1.5632 H       
  48 H48           -7.4512    -4.4816    -1.0796 H       
  49 H49           -8.9029    -3.4558    -1.1725 H       
  50 H50           -7.4156    -2.9724    -2.0226 H       
@<TRIPOS>BOND
   1    1    2 am
   2    1   10 1
   3    1    6 1
   4    2    3 1
   5    2    7 2
   6    3    4 2
   7    3    8 1
   8    4    5 1
   9    4   11 1
  10    5    6 2
  11    5   26 1
  12    6   27 1
  13    8    9 3
  14   10   12 1
  15   10   28 1
  16   10   29 1
  17   11   18 ar
  18   11   22 ar
  19   12   13 1
  20   12   17 1
  21   12   30 1
  22   13   14 1
  23   13   31 1
  24   13   32 1
  25   14   15 1
  26   14   33 1
  27   14   34 1
  28   15   16 1
  29   15   35 1
  30   15   36 1
  31   16   17 1
  32   16   37 1
  33   16   38 1
  34   17   39 1
  35   17   40 1
  36   18   19 ar
  37   18   41 1
  38   19   20 ar
  39   19   42 1
  40   20   21 ar
  41   20   23 1
  42   21   22 ar
  43   21   43 1
  44   22   44 1
  45   23   24 1
  46   23   25 1
  47   24   45 1
  48   24   46 1
  49   24   47 1
  50   25   48 1
  51   25   49 1
  52   25   50 1

#	End of record

