#	Name: ASD01410693
#	Creating user name:	WinNT
#	Creation time:	15. 06. 2019 19:18

#	Modifying user name:	WinNT
#	Modification time:	15. 06. 2019 19:18

#	Program:	/corina/corina34_cracker 3.40 0067  02.08.2006

@<TRIPOS>MOLECULE
ASD01410693
  76   79    0    0    0
SMALL
NO_CHARGES


@<TRIPOS>ATOM
   1 C1             0.8016     3.0602     2.1548 C.ar    
   2 C2             1.6236     2.9986     3.2714 C.ar    
   3 C3             2.8581     2.3884     3.1688 C.ar    
   4 N4             3.2616     1.8664     2.0264 N.ar    
   5 C5             2.5068     1.9054     0.9405 C.ar    
   6 C6             1.2535     2.5034     0.9709 C.ar    
   7 O7             2.9613     1.3560    -0.2137 O.3     
   8 C8             4.2288     0.8643    -0.2309 C.ar    
   9 C9             4.5383    -0.2784     0.4971 C.ar    
  10 C10            5.8218    -0.7859     0.4866 C.ar    
  11 C11            6.8140    -0.1567    -0.2523 C.ar    
  12 C12            6.5079     0.9974    -0.9895 C.ar    
  13 C13            5.2045     1.4997    -0.9772 C.ar    
  14 N14            8.1103    -0.6693    -0.2617 N.am    
  15 C15            8.5575    -1.3514    -1.3347 C.2     
  16 C16            8.9866    -0.4667     0.8947 C.3     
  17 O17            7.8641    -1.4460    -2.3252 O.2     
  18 C18            9.9192    -1.9963    -1.3037 C.3     
  19 C19           10.3343    -2.3798    -2.7255 C.3     
  20 C20            9.3169    -3.3641    -3.3059 C.3     
  21 C21            9.2667    -4.6197    -2.4330 C.3     
  22 C22            8.8516    -4.2362    -1.0112 C.3     
  23 C23            9.8690    -3.2519    -0.4309 C.3     
  24 C24            8.2728    -0.9364     2.1639 C.3     
  25 C25            9.3278     1.0194     1.0218 C.3     
  26 C26            1.1738     3.5918     4.5818 C.3     
  27 O27           10.1230     1.4227    -0.0949 O.3     
  28 C28           10.4500     2.8138    -0.1034 C.3     
  29 C29            8.2493    -5.6040    -3.0134 C.3     
  30 C30            8.0052    -2.4400     2.0717 C.3     
  31 N31            0.4594     2.5755     5.3583 N.pl3   
  32 N32            1.0144     1.7703     6.1933 N.2     
  33 C33            0.0884     0.9952     6.7107 C.2     
  34 C34           -1.1143     1.3890     6.1197 C.2     
  35 N35           -0.8089     2.3707     5.3017 N.2     
  36 C36            7.5549     1.6729    -1.7768 C.2     
  37 O37            8.6617     1.1794    -1.8658 O.2     
  38 O38            7.2847     2.8379    -2.3980 O.3     
  39 C39            0.3973     2.5455    -0.2685 C.3     
  40 F40           -0.8077     3.1956     0.0190 F       
  41 F41            1.0723     3.2396    -1.2783 F       
  42 F42            0.1323     1.2402    -0.6967 F       
  43 H43           -0.1703     3.5280     2.2095 H       
  44 H44            3.5017     2.3381     4.0347 H       
  45 H45            3.7704    -0.7718     1.0744 H       
  46 H46            6.0546    -1.6743     1.0549 H       
  47 H47            4.9613     2.3875    -1.5421 H       
  48 H48            9.9039    -1.0399     0.7604 H       
  49 H49           10.6440    -1.2951    -0.8903 H       
  50 H50           10.3700    -1.4853    -3.3474 H       
  51 H51           11.3192    -2.8463    -2.7031 H       
  52 H52            8.3320    -2.8977    -3.3283 H       
  53 H53            9.6126    -3.6374    -4.3188 H       
  54 H54           10.2516    -5.0862    -2.4106 H       
  55 H55            7.8667    -3.7697    -1.0337 H       
  56 H56            8.8158    -5.1307    -0.3894 H       
  57 H57           10.8539    -3.7184    -0.4084 H       
  58 H58            9.5733    -2.9787     0.5820 H       
  59 H59            8.9010    -0.7317     3.0309 H       
  60 H60            7.3270    -0.4047     2.2668 H       
  61 H61            8.4075     1.6030     1.0422 H       
  62 H62            9.8847     1.1867     1.9438 H       
  63 H63            2.0433     3.9335     5.1434 H       
  64 H64            0.5106     4.4353     4.3901 H       
  65 H65            9.5386     3.4005    -0.2184 H       
  66 H66           10.9364     3.0784     0.8354 H       
  67 H67           11.1243     3.0234    -0.9337 H       
  68 H68            8.5450    -5.8773    -4.0263 H       
  69 H69            8.2135    -6.4985    -2.3916 H       
  70 H70            7.2644    -5.1375    -3.0358 H       
  71 H71            7.5519    -2.6699     1.1075 H       
  72 H72            8.9452    -2.9831     2.1700 H       
  73 H73            7.3279    -2.7383     2.8719 H       
  74 H74            0.2284     0.2135     7.4427 H       
  75 H75           -2.0950     0.9744     6.3011 H       
  76 H76            8.0031     3.2433    -2.9026 H       
@<TRIPOS>BOND
   1    1    2 ar
   2    1    6 ar
   3    1   43 1
   4    2    3 ar
   5    2   26 1
   6    3    4 ar
   7    3   44 1
   8    4    5 ar
   9    5    6 ar
  10    5    7 1
  11    6   39 1
  12    7    8 1
  13    8    9 ar
  14    8   13 ar
  15    9   10 ar
  16    9   45 1
  17   10   11 ar
  18   10   46 1
  19   11   12 ar
  20   11   14 1
  21   12   13 ar
  22   12   36 1
  23   13   47 1
  24   14   15 am
  25   14   16 1
  26   15   17 2
  27   15   18 1
  28   16   24 1
  29   16   25 1
  30   16   48 1
  31   18   19 1
  32   18   23 1
  33   18   49 1
  34   19   20 1
  35   19   50 1
  36   19   51 1
  37   20   21 1
  38   20   52 1
  39   20   53 1
  40   21   22 1
  41   21   29 1
  42   21   54 1
  43   22   23 1
  44   22   55 1
  45   22   56 1
  46   23   57 1
  47   23   58 1
  48   24   30 1
  49   24   59 1
  50   24   60 1
  51   25   27 1
  52   25   61 1
  53   25   62 1
  54   26   31 1
  55   26   63 1
  56   26   64 1
  57   27   28 1
  58   28   65 1
  59   28   66 1
  60   28   67 1
  61   29   68 1
  62   29   69 1
  63   29   70 1
  64   30   71 1
  65   30   72 1
  66   30   73 1
  67   31   32 1
  68   31   35 1
  69   32   33 2
  70   33   34 1
  71   33   74 1
  72   34   35 2
  73   34   75 1
  74   36   37 2
  75   36   38 1
  76   38   76 1
  77   39   40 1
  78   39   41 1
  79   39   42 1

#	End of record

