#	Name: ASD00230013
#	Creating user name:	WinNT
#	Creation time:	15. 06. 2019 18:33

#	Modifying user name:	WinNT
#	Modification time:	15. 06. 2019 18:33

#	Program:	/corina/corina34_cracker 3.40 0067  02.08.2006

@<TRIPOS>MOLECULE
ASD00230013
  39   41    0    0    0
SMALL
NO_CHARGES


@<TRIPOS>ATOM
   1 C1            -0.1744     1.1446     0.2324 C.ar    
   2 C2            -0.1675     0.1895     1.2595 C.ar    
   3 C3             0.8985    -0.6716     1.3872 C.ar    
   4 C4             1.9673    -0.5959     0.5010 C.ar    
   5 C5             1.9669     0.3490    -0.5192 C.ar    
   6 C6             0.9066     1.2154    -0.6584 C.ar    
   7 N7            -1.2209     1.9896     0.0983 N.2     
   8 C8            -1.5621     2.7862     1.1009 C.2     
   9 C9            -3.1312     4.4160     2.0330 C.2     
  10 C10           -2.3212     4.4833     3.1942 C.2     
  11 C11           -1.0978     3.6722     3.2845 C.2     
  12 C12           -0.7484     2.8562     2.2575 C.2     
  13 C13           -2.7815     3.6010     1.0092 C.2     
  14 N14           -2.6628     5.2804     4.1948 N.2     
  15 C15           -1.8106     5.4739     5.2259 C.ar    
  16 C16           -0.6124     6.1756     5.0272 C.ar    
  17 C17            0.2507     6.3695     6.0813 C.ar    
  18 C18           -0.0628     5.8716     7.3413 C.ar    
  19 C19           -1.2491     5.1751     7.5450 C.ar    
  20 C20           -2.1233     4.9789     6.5005 C.ar    
  21 O21            0.7934     6.0660     8.3773 O.3     
  22 O22           -3.5576     3.5371    -0.1022 O.3     
  23 O23            3.0164    -1.4482     0.6326 O.3     
  24 N24           -0.3026     3.7376     4.4221 N.pl3   
  25 H25           -0.9967     0.1302     1.9489 H       
  26 H26            0.9050    -1.4075     2.1776 H       
  27 H27            2.8004     0.4031    -1.2038 H       
  28 H28            0.9072     1.9483    -1.4516 H       
  29 H29           -4.0299     5.0113     1.9664 H       
  30 H30            0.1499     2.2602     2.3228 H       
  31 H31           -0.3677     6.5625     4.0490 H       
  32 H32            1.1737     6.9093     5.9296 H       
  33 H33           -1.4867     4.7909     8.5260 H       
  34 H34           -3.0445     4.4380     6.6600 H       
  35 H35            0.6310     6.8794     8.8744 H       
  36 H36           -4.3374     4.1081    -0.0707 H       
  37 H37            2.9182    -2.2725     0.1365 H       
  38 H38           -0.7139     3.7860     5.2992 H       
  39 H39            0.6639     3.7348     4.3391 H       
@<TRIPOS>BOND
   1    1    2 ar
   2    1    6 ar
   3    1    7 1
   4    2    3 ar
   5    2   25 1
   6    3    4 ar
   7    3   26 1
   8    4    5 ar
   9    4   23 1
  10    5    6 ar
  11    5   27 1
  12    6   28 1
  13    7    8 2
  14    8   13 1
  15    8   12 1
  16    9   10 1
  17    9   13 2
  18    9   29 1
  19   10   11 1
  20   10   14 2
  21   11   12 2
  22   11   24 1
  23   12   30 1
  24   13   22 1
  25   14   15 1
  26   15   16 ar
  27   15   20 ar
  28   16   17 ar
  29   16   31 1
  30   17   18 ar
  31   17   32 1
  32   18   19 ar
  33   18   21 1
  34   19   20 ar
  35   19   33 1
  36   20   34 1
  37   21   35 1
  38   22   36 1
  39   23   37 1
  40   24   38 1
  41   24   39 1

#	End of record

