#	Name: ASD01911731
#	Creating user name:	WinNT
#	Creation time:	15. 06. 2019 19:58

#	Modifying user name:	WinNT
#	Modification time:	15. 06. 2019 19:58

#	Program:	/corina/corina34_cracker 3.40 0067  02.08.2006

@<TRIPOS>MOLECULE
ASD01911731
  36   38    0    0    0
SMALL
NO_CHARGES


@<TRIPOS>ATOM
   1 N1             0.0313     1.1543    -0.6864 N.am    
   2 C2             0.0021    -0.0041     0.0020 C.2     
   3 C3            -1.2514    -0.7547     0.1206 C.2     
   4 C4            -1.3870    -2.1141     0.0311 C.2     
   5 S5            -2.8479    -0.0665     0.4111 S.3     
   6 C6            -3.5486    -1.6819     0.3767 C.2     
   7 N7            -2.6022    -2.5629     0.1689 N.2     
   8 C8            -4.9370    -1.9853     0.5531 C.1     
   9 C9            -6.0752    -2.2341     0.6977 C.1     
  10 C10           -7.4635    -2.5375     0.8741 C.ar    
  11 C11           -7.8950    -3.8655     0.8247 C.ar    
  12 O12            1.0164    -0.4268     0.5252 O.2     
  13 C13           -1.1504     1.6141    -1.4285 C.3     
  14 C14           -1.4879     3.0405    -0.9834 C.3     
  15 C15           -0.2537     3.9293    -1.1537 C.3     
  16 C16            0.8811     3.4037    -0.2716 C.3     
  17 C17            1.2436     1.9842    -0.7040 C.3     
  18 C18           -9.2399    -4.1415     0.9971 C.ar    
  19 C19          -10.1116    -3.0834     1.2133 C.ar    
  20 C20           -9.6169    -1.7912     1.2504 C.ar    
  21 N21           -8.3323    -1.5535     1.0891 N.ar    
  22 H22           -0.5455    -2.7686    -0.1419 H       
  23 H23           -7.1892    -4.6650     0.6541 H       
  24 H24           -0.9368     1.6057    -2.4973 H       
  25 H25           -1.9934     0.9563    -1.2171 H       
  26 H26           -2.3030     3.4289    -1.5940 H       
  27 H27           -1.7891     3.0331     0.0642 H       
  28 H28            0.0617     3.9166    -2.1970 H       
  29 H29           -0.4982     4.9503    -0.8609 H       
  30 H30            1.7522     4.0507    -0.3756 H       
  31 H31            0.5576     3.3929     0.7693 H       
  32 H32            1.9814     1.5700    -0.0168 H       
  33 H33            1.6523     2.0031    -1.7143 H       
  34 H34           -9.6033    -5.1580     0.9638 H       
  35 H35          -11.1670    -3.2667     1.3510 H       
  36 H36          -10.2938    -0.9667     1.4185 H       
@<TRIPOS>BOND
   1    1    2 am
   2    1   13 1
   3    1   17 1
   4    2    3 1
   5    2   12 2
   6    3    4 2
   7    3    5 1
   8    4    7 1
   9    4   22 1
  10    5    6 1
  11    6    7 2
  12    6    8 1
  13    8    9 3
  14    9   10 1
  15   10   11 ar
  16   10   21 ar
  17   11   18 ar
  18   11   23 1
  19   13   14 1
  20   13   24 1
  21   13   25 1
  22   14   15 1
  23   14   26 1
  24   14   27 1
  25   15   16 1
  26   15   28 1
  27   15   29 1
  28   16   17 1
  29   16   30 1
  30   16   31 1
  31   17   32 1
  32   17   33 1
  33   18   19 ar
  34   18   34 1
  35   19   20 ar
  36   19   35 1
  37   20   21 ar
  38   20   36 1

#	End of record

