#	Name: ASD01917972
#	Creating user name:	WinNT
#	Creation time:	15. 06. 2019 20:10

#	Modifying user name:	WinNT
#	Modification time:	15. 06. 2019 20:10

#	Program:	/corina/corina34_cracker 3.40 0067  02.08.2006

@<TRIPOS>MOLECULE
ASD01917972
  43   46    0    0    0
SMALL
NO_CHARGES


@<TRIPOS>ATOM
   1 N1             4.8198    -0.4118    -2.1426 N.ar    
   2 C2             5.2869     0.2865    -3.1590 C.ar    
   3 C3             5.1750     1.6652    -3.1844 C.ar    
   4 C4             4.5620     2.3138    -2.1229 C.ar    
   5 C5             4.0811     1.5454    -1.0678 C.ar    
   6 C6             4.2309     0.1665    -1.1149 C.ar    
   7 O7             3.4736     2.1366    -0.0057 O.3     
   8 C8             3.4549     3.4957     0.0441 C.2     
   9 N9             2.2049     5.5090    -0.0215 N.pl3   
  10 C10            2.2723     4.1531    -0.0652 C.2     
  11 C11            4.6548     4.1968     0.2129 C.2     
  12 C12            4.6275     5.5861     0.2628 C.2     
  13 C13            3.3353     6.2596     0.1356 C.2     
  14 C14            5.8680     6.3598     0.4397 C.2     
  15 N15            5.8218     7.7060     0.4858 N.am    
  16 C16            6.9780     8.4336     0.7584 C.ar    
  17 N17            8.1386     7.8055     0.8643 N.ar    
  18 C18            6.9034     9.8134     0.9112 C.ar    
  19 C19            8.0597    10.5242     1.1814 C.ar    
  20 C20            9.2553     9.8274     1.2898 C.ar    
  21 C21            9.2567     8.4566     1.1210 C.ar    
  22 O22            6.9341     5.7839     0.5443 O.2     
  23 N23            1.1424     6.4204    -0.1071 N.2     
  24 C24            1.6577     7.6231    -0.0108 C.2     
  25 N25            2.9728     7.5327     0.1414 N.2     
  26 Cl26           5.7948     2.5723    -4.5285 Cl      
  27 C27           10.5523     7.6949     1.2317 C.3     
  28 C28           10.4052     6.5875     2.2771 C.3     
  29 H29            5.7635    -0.2246    -3.9824 H       
  30 H30            4.4609     3.3891    -2.1154 H       
  31 H31            3.8607    -0.4392    -0.3010 H       
  32 H32            1.3629     3.5842    -0.1902 H       
  33 H33            5.5904     3.6650     0.3037 H       
  34 H34            4.9835     8.1681     0.3290 H       
  35 H35            5.9560    10.3238     0.8199 H       
  36 H36            8.0325    11.5968     1.3047 H       
  37 H37           10.1755    10.3522     1.4999 H       
  38 H38            1.0964     8.5453    -0.0414 H       
  39 H39           10.7975     7.2527     0.2660 H       
  40 H40           11.3491     8.3751     1.5326 H       
  41 H41           11.3423     6.0366     2.3572 H       
  42 H42           10.1600     7.0297     3.2428 H       
  43 H43            9.6084     5.9073     1.9762 H       
@<TRIPOS>BOND
   1    1    2 ar
   2    1    6 ar
   3    2    3 ar
   4    2   29 1
   5    3    4 ar
   6    3   26 1
   7    4    5 ar
   8    4   30 1
   9    5    6 ar
  10    5    7 1
  11    6   31 1
  12    7    8 1
  13    8   11 1
  14    8   10 2
  15    9   10 1
  16    9   23 1
  17    9   13 1
  18   10   32 1
  19   11   12 2
  20   11   33 1
  21   12   13 1
  22   12   14 1
  23   13   25 2
  24   14   15 am
  25   14   22 2
  26   15   16 1
  27   15   34 1
  28   16   18 ar
  29   16   17 ar
  30   17   21 ar
  31   18   19 ar
  32   18   35 1
  33   19   20 ar
  34   19   36 1
  35   20   21 ar
  36   20   37 1
  37   21   27 1
  38   23   24 2
  39   24   25 1
  40   24   38 1
  41   27   28 1
  42   27   39 1
  43   27   40 1
  44   28   41 1
  45   28   42 1
  46   28   43 1

#	End of record

