#	Name: ASD07100005
#	Creating user name:	WinNT
#	Creation time:	15. 06. 2019 21:08

#	Modifying user name:	WinNT
#	Modification time:	15. 06. 2019 21:08

#	Program:	/corina/corina34_cracker 3.40 0067  02.08.2006

@<TRIPOS>MOLECULE
ASD07100005
  37   36    0    0    0
SMALL
NO_CHARGES


@<TRIPOS>ATOM
   1 C1             0.4865     2.4505     0.6387 C.3     
   2 C2             0.2552     1.0797     1.2776 C.3     
   3 C3             1.7651     2.4128    -0.2007 C.3     
   4 O4            -0.8823     1.1420     2.1403 O.3     
   5 C5             1.6496     1.3118    -1.2568 C.3     
   6 C6             1.9617     3.7637    -0.8917 C.3     
   7 O7             2.8837     2.1442     0.6471 O.3     
   8 P8            -1.4168    -0.1237     2.9795 P.3     
   9 O9            -2.7826     0.2713     3.7349 O.3     
  10 O10           -1.6826    -1.3038     2.0183 O.co2   
  11 O11           -0.3533    -0.5374     4.0210 O.co2   
  12 P12           -3.9477    -0.5753     4.4546 P.3     
  13 O13           -3.3370    -1.4062     5.6341 O.co2   
  14 O14           -5.0353     0.4039     5.0139 O.co2   
  15 O15           -4.6045    -1.5473     3.4162 O.co2   
  16 C16            2.1732     4.8506     0.1642 C.3     
  17 C17            3.6039     4.7693     0.7002 C.3     
  18 C18            1.9420     6.2255    -0.4659 C.3     
  19 C19            2.9339     1.2314    -2.0412 C.2     
  20 O20            3.8972     1.8980    -1.7034 O.co2   
  21 O21            3.0095     0.4997    -3.0135 O.co2   
  22 H22           -0.3603     2.7012    -0.0002 H       
  23 H23            0.5872     3.2034     1.4205 H       
  24 H24            0.0788     0.3400     0.4966 H       
  25 H25            1.1344     0.7951     1.8555 H       
  26 H26            1.4628     0.3563    -0.7666 H       
  27 H27            0.8252     1.5410    -1.9320 H       
  28 H28            2.8343     3.7151    -1.5430 H       
  29 H29            1.0783     4.0003    -1.4848 H       
  30 H30            2.8687     2.6292     1.4835 H       
  31 H31            1.4694     4.7033     0.9833 H       
  32 H32            4.3036     5.0473    -0.0880 H       
  33 H33            3.7156     5.4520     1.5426 H       
  34 H34            3.8118     3.7507     1.0280 H       
  35 H35            0.9227     6.2834    -0.8478 H       
  36 H36            2.0927     6.9999     0.2863 H       
  37 H37            2.6458     6.3728    -1.2851 H       
@<TRIPOS>BOND
   1    1    2 1
   2    1    3 1
   3    1   22 1
   4    1   23 1
   5    2    4 1
   6    2   24 1
   7    2   25 1
   8    3    5 1
   9    3    6 1
  10    3    7 1
  11    4    8 1
  12    5   19 1
  13    5   26 1
  14    5   27 1
  15    6   16 1
  16    6   28 1
  17    6   29 1
  18    7   30 1
  19    8    9 1
  20    8   10 ar
  21    8   11 ar
  22    9   12 1
  23   12   13 ar
  24   12   14 ar
  25   12   15 ar
  26   16   17 1
  27   16   18 1
  28   16   31 1
  29   17   32 1
  30   17   33 1
  31   17   34 1
  32   18   35 1
  33   18   36 1
  34   18   37 1
  35   19   20 ar
  36   19   21 ar

#	End of record

