#	Name: ASD01028242
#	Creating user name:	WinNT
#	Creation time:	15. 06. 2019 18:56

#	Modifying user name:	WinNT
#	Modification time:	15. 06. 2019 18:56

#	Program:	/corina/corina34_cracker 3.40 0067  02.08.2006

@<TRIPOS>MOLECULE
ASD01028242
  59   64    0    0    0
SMALL
NO_CHARGES


@<TRIPOS>ATOM
   1 C1            -0.0166     1.3719     0.0096 C.ar    
   2 C2             0.0021    -0.0041     0.0020 C.ar    
   3 C3             1.1750     2.1035     0.0021 C.ar    
   4 C4             2.3797     1.4715    -0.0128 C.ar    
   5 C5             2.4326     0.0695    -0.0208 C.ar    
   6 C6             1.2322    -0.6815    -0.0134 C.ar    
   7 C7             3.6676    -0.6170    -0.0367 C.ar    
   8 C8             3.6411    -2.0003    -0.0444 C.ar    
   9 C9             2.4221    -2.6660    -0.0364 C.ar    
  10 N10            1.2804    -2.0188    -0.0211 N.ar    
  11 O11            4.8427     0.0593    -0.0447 O.3     
  12 C12            6.0400    -0.7207    -0.0607 C.3     
  13 C13            7.2364     0.1957    -0.0676 C.2     
  14 N14            7.8800     0.6745     1.0192 N.pl3   
  15 C15            8.9001     1.4613     0.5399 C.2     
  16 N16            8.8263     1.4215    -0.7805 N.2     
  17 N17            7.8431     0.6668    -1.1286 N.2     
  18 N18            7.7018     0.5207     2.3955 N.2     
  19 C19            8.5052     1.1248     3.2435 C.2     
  20 C20            9.5617     1.9391     2.7823 C.2     
  21 C21            9.7600     2.1073     1.4484 C.2     
  22 C22            8.2984     0.9487     4.7012 C.ar    
  23 C23            9.1384     1.5800     5.6144 C.ar    
  24 C24            7.2521     0.1498     5.1783 C.ar    
  25 C25            7.0987     0.0153     6.5433 C.ar    
  26 C26            7.9825     0.6733     7.3950 C.ar    
  27 N27            8.9587     1.4265     6.9109 N.ar    
  28 O28           -1.2065     2.0271     0.0188 O.3     
  29 C29           -1.1606     3.4553     0.0263 C.3     
  30 N30            7.8346     0.5434     8.7694 N.pl3   
  31 C31            6.7540    -0.2818     9.3150 C.3     
  32 C32            7.1248    -0.7863    10.7249 C.3     
  33 C33            5.4799     0.5668     9.5148 C.3     
  34 N34            4.8783     0.0489    10.7706 N.3     
  35 C35            6.0435    -0.2000    11.6579 C.3     
  36 H36           -0.9239    -0.5598     0.0082 H       
  37 H37            1.1387     3.1829     0.0079 H       
  38 H38            3.2932     2.0476    -0.0188 H       
  39 H39            4.5646    -2.5602    -0.0569 H       
  40 H40            2.4134    -3.7460    -0.0425 H       
  41 H41            6.0728    -1.3543     0.8256 H       
  42 H42            6.0552    -1.3447    -0.9543 H       
  43 H43           10.2133     2.4294     3.4904 H       
  44 H44           10.5670     2.7291     1.0898 H       
  45 H45            9.9458     2.2016     5.2566 H       
  46 H46            6.5811    -0.3489     4.4945 H       
  47 H47            6.3023    -0.5929     6.9463 H       
  48 H48           -2.1761     3.8514     0.0333 H       
  49 H49           -0.6312     3.7971     0.9157 H       
  50 H50           -0.6396     3.8068    -0.8642 H       
  51 H51            8.4466     0.9990     9.3683 H       
  52 H52            6.5502    -1.1235     8.6532 H       
  53 H53            7.1012    -1.8756    10.7555 H       
  54 H54            8.1107    -0.4199    11.0109 H       
  55 H55            5.7379     1.6203     9.6232 H       
  56 H56            4.7947     0.4264     8.6789 H       
  57 H57            4.2519     0.7270    11.1779 H       
  58 H58            5.7826    -0.9179    12.4355 H       
  59 H59            6.3897     0.7334    12.1016 H       
@<TRIPOS>BOND
   1    1    2 ar
   2    1    3 ar
   3    1   28 1
   4    2    6 ar
   5    2   36 1
   6    3    4 ar
   7    3   37 1
   8    4    5 ar
   9    4   38 1
  10    5    6 ar
  11    5    7 ar
  12    6   10 ar
  13    7    8 ar
  14    7   11 1
  15    8    9 ar
  16    8   39 1
  17    9   10 ar
  18    9   40 1
  19   11   12 1
  20   12   13 1
  21   12   41 1
  22   12   42 1
  23   13   14 1
  24   13   17 2
  25   14   15 1
  26   14   18 1
  27   15   16 2
  28   15   21 1
  29   16   17 1
  30   18   19 2
  31   19   20 1
  32   19   22 1
  33   20   21 2
  34   20   43 1
  35   21   44 1
  36   22   23 ar
  37   22   24 ar
  38   23   27 ar
  39   23   45 1
  40   24   25 ar
  41   24   46 1
  42   25   26 ar
  43   25   47 1
  44   26   27 ar
  45   26   30 1
  46   28   29 1
  47   29   48 1
  48   29   49 1
  49   29   50 1
  50   30   31 1
  51   30   51 1
  52   31   32 1
  53   31   33 1
  54   31   52 1
  55   32   35 1
  56   32   53 1
  57   32   54 1
  58   33   34 1
  59   33   55 1
  60   33   56 1
  61   34   35 1
  62   34   57 1
  63   35   58 1
  64   35   59 1

#	End of record

