#	Name: ASD03091115
#	Creating user name:	WinNT
#	Creation time:	15. 06. 2019 20:30

#	Modifying user name:	WinNT
#	Modification time:	15. 06. 2019 20:30

#	Program:	/corina/corina34_cracker 3.40 0067  02.08.2006

@<TRIPOS>MOLECULE
ASD03091115
  58   62    0    0    0
SMALL
NO_CHARGES


@<TRIPOS>ATOM
   1 C1            -0.1624     1.6543    -0.3923 C.3     
   2 N2            -0.1775     0.1899    -0.3515 N.am    
   3 C3            -0.1343    -0.4512     0.8465 C.2     
   4 N4            -0.1440    -1.7436     0.9654 N.2     
   5 C5            -0.1991    -2.5579    -0.1190 C.ar    
   6 C6            -0.2469    -1.9798    -1.4070 C.ar    
   7 C7            -0.2399    -0.5127    -1.5067 C.2     
   8 C8            -0.0713     0.3816     2.1010 C.3     
   9 O9            -0.2793     0.0480    -2.5865 O.2     
  10 C10           -0.2091    -3.9486     0.0101 C.ar    
  11 C11           -0.2647    -4.7355    -1.1045 C.ar    
  12 C12           -0.3121    -4.1701    -2.3787 C.ar    
  13 C13           -0.3035    -2.7945    -2.5354 C.ar    
  14 N14           -0.3681    -4.9972    -3.5041 N.3     
  15 C15           -1.5772     2.1723    -0.3601 C.2     
  16 N16           -1.8098     3.4995    -0.3890 N.am    
  17 C17           -3.1851     4.0031    -0.3577 C.3     
  18 O18           -2.5066     1.3948    -0.3082 O.2     
  19 C19           -3.6599     4.0999     1.0935 C.3     
  20 C20           -3.2357     5.3888    -1.0044 C.3     
  21 C21           -0.5772    -0.2545     3.3973 C.3     
  22 C22            0.9231    -0.0448     3.1827 C.3     
  23 C23            0.3075    -4.3647    -4.6626 C.3     
  24 C24            1.4126    -5.3790    -5.0913 C.3     
  25 N25            2.4293    -5.2963    -3.9956 N.3     
  26 C26            1.7717    -5.8448    -2.7851 C.3     
  27 C27            0.3524    -6.2862    -3.2589 C.3     
  28 C28            2.8577    -3.9080    -3.7787 C.3     
  29 C29            0.6897    -6.7256    -4.7287 C.3     
  30 H30            0.3840     2.0362     0.4700 H       
  31 H31            0.3256     1.9872    -1.3083 H       
  32 H32           -0.2404     1.4498     1.9651 H       
  33 H33           -0.1725    -4.4009     0.9901 H       
  34 H34           -0.2718    -5.8102    -0.9980 H       
  35 H35           -0.3402    -2.3576    -3.5224 H       
  36 H36           -1.0664     4.1213    -0.4305 H       
  37 H37           -3.8342     3.3216    -0.9077 H       
  38 H38           -4.6832     4.4746     1.1168 H       
  39 H39           -3.6239     3.1127     1.5542 H       
  40 H40           -3.0109     4.7814     1.6434 H       
  41 H41           -2.8975     5.3198    -2.0383 H       
  42 H42           -4.2590     5.7635    -0.9811 H       
  43 H43           -2.5867     6.0703    -0.4545 H       
  44 H44           -1.0787     0.3953     4.1144 H       
  45 H45           -0.9555    -1.2753     3.3428 H       
  46 H46            1.5318    -0.9275     2.9871 H       
  47 H47            1.4086     0.7431     3.7587 H       
  48 H48           -0.4011    -4.2106    -5.4763 H       
  49 H49            0.7577    -3.4170    -4.3671 H       
  50 H50            1.7927    -5.2763    -6.1077 H       
  51 H51            2.3285    -6.7024    -2.4076 H       
  52 H52            1.6921    -5.0761    -2.0164 H       
  53 H53           -0.1620    -7.0115    -2.6284 H       
  54 H54            2.0368    -3.3382    -3.3433 H       
  55 H55            3.7106    -3.8927    -3.1002 H       
  56 H56            3.1435    -3.4628    -4.7318 H       
  57 H57           -0.2058    -6.8897    -5.3281 H       
  58 H58            1.3653    -7.5804    -4.7611 H       
@<TRIPOS>BOND
   1    1    2 1
   2    1   15 1
   3    1   30 1
   4    1   31 1
   5    2    3 1
   6    2    7 am
   7    3    4 2
   8    3    8 1
   9    4    5 1
  10    5    6 ar
  11    5   10 ar
  12    6    7 1
  13    6   13 ar
  14    7    9 2
  15    8   21 1
  16    8   22 1
  17    8   32 1
  18   10   11 ar
  19   10   33 1
  20   11   12 ar
  21   11   34 1
  22   12   13 ar
  23   12   14 1
  24   13   35 1
  25   14   23 1
  26   14   27 1
  27   15   16 am
  28   15   18 2
  29   16   17 1
  30   16   36 1
  31   17   19 1
  32   17   20 1
  33   17   37 1
  34   19   38 1
  35   19   39 1
  36   19   40 1
  37   20   41 1
  38   20   42 1
  39   20   43 1
  40   21   22 1
  41   21   44 1
  42   21   45 1
  43   22   46 1
  44   22   47 1
  45   23   24 1
  46   23   48 1
  47   23   49 1
  48   24   25 1
  49   24   29 1
  50   24   50 1
  51   25   26 1
  52   25   28 1
  53   26   27 1
  54   26   51 1
  55   26   52 1
  56   27   29 1
  57   27   53 1
  58   28   54 1
  59   28   55 1
  60   28   56 1
  61   29   57 1
  62   29   58 1

#	End of record

