#	Name: ASD05130090
#	Creating user name:	WinNT
#	Creation time:	15. 06. 2019 20:56

#	Modifying user name:	WinNT
#	Modification time:	15. 06. 2019 20:56

#	Program:	/corina/corina34_cracker 3.40 0067  02.08.2006

@<TRIPOS>MOLECULE
ASD05130090
  56   59    0    0    0
SMALL
NO_CHARGES


@<TRIPOS>ATOM
   1 N1             0.2080     2.0823    -0.2387 N.am    
   2 C2             0.1818     0.8855     0.3806 C.2     
   3 O3             1.2030     0.4212     0.8496 O.2     
   4 N4            -0.9764     0.2034     0.4799 N.am    
   5 C5            -0.9824    -1.0916     1.0101 C.ar    
   6 C6            -2.1286    -1.5907     1.6146 C.ar    
   7 C7            -2.1313    -2.8693     2.1370 C.ar    
   8 C8            -0.9942    -3.6522     2.0584 C.ar    
   9 C9             0.1488    -3.1581     1.4571 C.ar    
  10 C10            0.1562    -1.8825     0.9278 C.ar    
  11 C11            1.3933     2.8303    -0.2686 C.ar    
  12 C12            1.3389     4.2149    -0.3977 C.ar    
  13 C13            2.5063     4.9570    -0.4276 C.ar    
  14 C14            3.7328     4.3266    -0.3298 C.ar    
  15 C15            3.7948     2.9377    -0.2001 C.ar    
  16 C16            2.6177     2.1915    -0.1639 C.ar    
  17 F17            4.8709     5.0539    -0.3603 F       
  18 F18            0.1431     4.8360    -0.4945 F       
  19 N19            7.0675     1.7067     1.2486 N.am    
  20 C20            5.8733     2.3234     1.1525 C.2     
  21 C21            5.1078     2.2593    -0.0951 C.2     
  22 C22            5.6132     1.5686    -1.1621 C.2     
  23 C23            6.8697     0.9289    -1.0357 C.ar    
  24 C24            7.4253     0.2115    -2.1023 C.ar    
  25 N25            8.5940    -0.3765    -1.9682 N.ar    
  26 C26            9.2896    -0.3197    -0.8382 C.ar    
  27 C27            8.8134     0.3687     0.2671 C.ar    
  28 C28            7.5822     1.0097     0.1801 C.ar    
  29 O29            5.4287     2.9369     2.1063 O.2     
  30 C30            7.8261     1.7832     2.4996 C.3     
  31 C31            7.4349     0.6140     3.4056 C.3     
  32 C32           11.0437    -1.5504    -1.8573 C.2     
  33 C33           12.4259    -2.1485    -1.8047 C.3     
  34 O34           10.4018    -1.5964    -2.8852 O.2     
  35 N35           10.5209    -0.9644    -0.7620 N.am    
  36 H36           -0.5923     2.4243    -0.6671 H       
  37 H37           -1.8057     0.6101     0.1840 H       
  38 H38           -3.0169    -0.9796     1.6766 H       
  39 H39           -3.0223    -3.2579     2.6075 H       
  40 H40           -0.9987    -4.6515     2.4679 H       
  41 H41            1.0354    -3.7720     1.3976 H       
  42 H42            1.0477    -1.4989     0.4539 H       
  43 H43            2.4593     6.0313    -0.5280 H       
  44 H44            2.6606     1.1175    -0.0588 H       
  45 H45            5.0610     1.5118    -2.0885 H       
  46 H46            6.8918     0.1404    -3.0387 H       
  47 H47            9.3889     0.4065     1.1802 H       
  48 H48            8.8928     1.7325     2.2813 H       
  49 H49            7.6026     2.7237     3.0031 H       
  50 H50            7.9993     0.6710     4.3363 H       
  51 H51            6.3682     0.6647     3.6239 H       
  52 H52            7.6584    -0.3265     2.9020 H       
  53 H53           12.6753    -2.5731    -2.7771 H       
  54 H54           13.1482    -1.3725    -1.5511 H       
  55 H55           12.4541    -2.9323    -1.0479 H       
  56 H56           11.0027    -0.9919     0.0795 H       
@<TRIPOS>BOND
   1    1    2 am
   2    1   11 1
   3    1   36 1
   4    2    3 2
   5    2    4 am
   6    4    5 1
   7    4   37 1
   8    5    6 ar
   9    5   10 ar
  10    6    7 ar
  11    6   38 1
  12    7    8 ar
  13    7   39 1
  14    8    9 ar
  15    8   40 1
  16    9   10 ar
  17    9   41 1
  18   10   42 1
  19   11   12 ar
  20   11   16 ar
  21   12   13 ar
  22   12   18 1
  23   13   14 ar
  24   13   43 1
  25   14   15 ar
  26   14   17 1
  27   15   16 ar
  28   15   21 1
  29   16   44 1
  30   19   20 am
  31   19   28 1
  32   19   30 1
  33   20   21 1
  34   20   29 2
  35   21   22 2
  36   22   23 1
  37   22   45 1
  38   23   24 ar
  39   23   28 ar
  40   24   25 ar
  41   24   46 1
  42   25   26 ar
  43   26   27 ar
  44   26   35 1
  45   27   28 ar
  46   27   47 1
  47   30   31 1
  48   30   48 1
  49   30   49 1
  50   31   50 1
  51   31   51 1
  52   31   52 1
  53   32   33 1
  54   32   34 2
  55   32   35 am
  56   33   53 1
  57   33   54 1
  58   33   55 1
  59   35   56 1

#	End of record

