#	Name: ASD03080086
#	Creating user name:	WinNT
#	Creation time:	15. 06. 2019 20:26

#	Modifying user name:	WinNT
#	Modification time:	15. 06. 2019 20:26

#	Program:	/corina/corina34_cracker 3.40 0067  02.08.2006

@<TRIPOS>MOLECULE
ASD03080086
  38   39    0    0    0
SMALL
NO_CHARGES


@<TRIPOS>ATOM
   1 O1             0.0021    -0.0041     0.0020 O.co2   
   2 C2            -0.0145     1.2150     0.0087 C.2     
   3 O3             1.0330     1.8389     0.0021 O.co2   
   4 C4            -1.3296     1.9507     0.0190 C.3     
   5 F5            -1.7304     2.1712     1.3411 F       
   6 F6            -1.1821     3.1788    -0.6346 F       
   7 F7            -2.2974     1.1850    -0.6401 F       
   8 N8            14.6075     8.1788     7.2322 N.1     
   9 C9            14.5921     9.3147     7.2384 C.1     
  10 C10           14.5727    10.7466     7.2463 C.ar    
  11 C11           15.7719    11.4632     7.2387 C.ar    
  12 C12           15.7546    12.8439     7.2463 C.ar    
  13 C13           14.5540    13.5255     7.2615 C.ar    
  14 C14           13.3475    12.8216     7.2692 C.ar    
  15 C15           13.3571    11.4288     7.2557 C.ar    
  16 C16           12.0629    13.5535     7.2854 C.2     
  17 O17           10.8347    13.0127     7.2947 O.3     
  18 N18            9.9972    13.8897     7.3080 N.2     
  19 C19           10.5705    15.0658     7.3089 C.2     
  20 N20           11.9047    14.8636     7.2994 N.2     
  21 C21            9.8806    16.3801     7.3227 C.ar    
  22 C22           10.6162    17.5679     7.3215 C.ar    
  23 C23            9.9257    18.7680     7.3348 C.ar    
  24 C24            8.5431    18.7526     7.3486 C.ar    
  25 N25            7.8758    17.6146     7.3494 N.ar    
  26 C26            8.4892    16.4491     7.3313 C.ar    
  27 C27            6.4113    17.6481     7.3648 C.3     
  28 H28           16.7146    10.9362     7.2272 H       
  29 H29           16.6845    13.3932     7.2407 H       
  30 H30           14.5477    14.6054     7.2677 H       
  31 H31           12.4270    10.8799     7.2616 H       
  32 H32           11.6960    17.5505     7.3109 H       
  33 H33           10.4611    19.7059     7.3346 H       
  34 H34            8.0012    19.6867     7.3594 H       
  35 H35            7.9084    15.5386     7.3322 H       
  36 H36            6.0374    17.6620     6.3411 H       
  37 H37            6.0330    16.7639     7.8778 H       
  38 H38            6.0738    18.5434     7.8871 H       
@<TRIPOS>BOND
   1    1    2 ar
   2    2    3 ar
   3    2    4 1
   4    4    5 1
   5    4    6 1
   6    4    7 1
   7    8    9 3
   8    9   10 1
   9   10   11 ar
  10   10   15 ar
  11   11   12 ar
  12   11   28 1
  13   12   13 ar
  14   12   29 1
  15   13   14 ar
  16   13   30 1
  17   14   15 ar
  18   14   16 1
  19   15   31 1
  20   16   17 1
  21   16   20 2
  22   17   18 1
  23   18   19 2
  24   19   20 1
  25   19   21 1
  26   21   22 ar
  27   21   26 ar
  28   22   23 ar
  29   22   32 1
  30   23   24 ar
  31   23   33 1
  32   24   25 ar
  33   24   34 1
  34   25   26 ar
  35   25   27 1
  36   26   35 1
  37   27   36 1
  38   27   37 1
  39   27   38 1

#	End of record

