#	Name: ASD01914026
#	Creating user name:	WinNT
#	Creation time:	15. 06. 2019 20:02

#	Modifying user name:	WinNT
#	Modification time:	15. 06. 2019 20:02

#	Program:	/corina/corina34_cracker 3.40 0067  02.08.2006

@<TRIPOS>MOLECULE
ASD01914026
  52   54    0    0    0
SMALL
NO_CHARGES


@<TRIPOS>ATOM
   1 C1            -0.0169     1.3933     0.0097 C.ar    
   2 C2             0.0021    -0.0041     0.0020 C.ar    
   3 C3             1.2239    -0.6823    -0.0133 C.ar    
   4 C4             2.3803     1.4178    -0.0131 C.ar    
   5 C5             1.1676     2.0962     0.0022 C.ar    
   6 O6             3.5455     2.1144    -0.0204 O.3     
   7 C7             4.7556     1.3545    -0.0361 C.3     
   8 C8             5.9366     2.2906    -0.0423 C.ar    
   9 N9             7.1585     1.7935    -0.0567 N.ar    
  10 C10            8.2241     2.5672    -0.0627 C.ar    
  11 C11            8.0925     3.9562    -0.0535 C.ar    
  12 C12            6.8082     4.5138    -0.0383 C.ar    
  13 C13            5.7215     3.6573    -0.0386 C.ar    
  14 C14            9.2890     4.8246    -0.0593 C.2     
  15 N15           10.5199     4.2759    -0.0735 N.am    
  16 O16            9.1625     6.0335    -0.0512 O.2     
  17 C17           11.7055     5.1365    -0.0793 C.3     
  18 C18            2.4037     0.0284    -0.0207 C.ar    
  19 C19           12.8916     4.3746     0.5153 C.3     
  20 C20           -1.2270    -0.7389     0.0103 C.1     
  21 N21           -2.2020    -1.3218     0.0168 N.1     
  22 C22           12.0314     5.5461    -1.5169 C.3     
  23 C23           14.1298     5.2733     0.5093 C.3     
  24 C24           15.3159     4.5114     1.1039 C.3     
  25 C25           14.9900     4.1018     2.5416 C.3     
  26 C26           13.7518     3.2031     2.5476 C.3     
  27 C27           12.5657     3.9650     1.9530 C.3     
  28 H28           -0.9590     1.9214     0.0170 H       
  29 H29            1.2430    -1.7621    -0.0189 H       
  30 H30            1.1539     3.1761     0.0074 H       
  31 H31            4.7985     0.7214     0.8502 H       
  32 H32            4.7815     0.7309    -0.9297 H       
  33 H33            9.2084     2.1228    -0.0745 H       
  34 H34            6.6694     5.5848    -0.0308 H       
  35 H35            4.7161     4.0515    -0.0271 H       
  36 H36           10.6208     3.3112    -0.0800 H       
  37 H37           11.5104     6.0278     0.5171 H       
  38 H38            3.3484    -0.4949    -0.0326 H       
  39 H39           13.0867     3.4833    -0.0810 H       
  40 H40           12.2265     4.6548    -2.1133 H       
  41 H41           11.1864     6.0889    -1.9405 H       
  42 H42           12.9135     6.1864    -1.5212 H       
  43 H43           14.3620     5.5651    -0.5149 H       
  44 H44           13.9347     6.1646     1.1057 H       
  45 H45           15.5110     3.6201     0.5076 H       
  46 H46           16.1980     5.1517     1.0997 H       
  47 H47           15.8350     3.5590     2.9652 H       
  48 H48           14.7949     4.9931     3.1380 H       
  49 H49           13.9469     2.3118     1.9512 H       
  50 H50           13.5196     2.9113     3.5718 H       
  51 H51           12.3706     4.8563     2.5493 H       
  52 H52           11.6836     3.3247     1.9573 H       
@<TRIPOS>BOND
   1    1    2 ar
   2    1    5 ar
   3    1   28 1
   4    2    3 ar
   5    2   20 1
   6    3   18 ar
   7    3   29 1
   8    4    5 ar
   9    4    6 1
  10    4   18 ar
  11    5   30 1
  12    6    7 1
  13    7    8 1
  14    7   31 1
  15    7   32 1
  16    8    9 ar
  17    8   13 ar
  18    9   10 ar
  19   10   11 ar
  20   10   33 1
  21   11   12 ar
  22   11   14 1
  23   12   13 ar
  24   12   34 1
  25   13   35 1
  26   14   15 am
  27   14   16 2
  28   15   17 1
  29   15   36 1
  30   17   19 1
  31   17   22 1
  32   17   37 1
  33   18   38 1
  34   19   23 1
  35   19   27 1
  36   19   39 1
  37   20   21 3
  38   22   40 1
  39   22   41 1
  40   22   42 1
  41   23   24 1
  42   23   43 1
  43   23   44 1
  44   24   25 1
  45   24   45 1
  46   24   46 1
  47   25   26 1
  48   25   47 1
  49   25   48 1
  50   26   27 1
  51   26   49 1
  52   26   50 1
  53   27   51 1
  54   27   52 1

#	End of record

