#	Name: ASD01903064
#	Creating user name:	WinNT
#	Creation time:	15. 06. 2019 19:54

#	Modifying user name:	WinNT
#	Modification time:	15. 06. 2019 19:54

#	Program:	/corina/corina34_cracker 3.40 0067  02.08.2006

@<TRIPOS>MOLECULE
ASD01903064
  29   31    0    0    0
SMALL
NO_CHARGES


@<TRIPOS>ATOM
   1 C1            -0.0155     1.2937     0.0092 C.2     
   2 N2             0.0021    -0.0041     0.0020 N.2     
   3 C3            -1.1711    -0.6210     0.0107 C.2     
   4 C4            -2.2461     0.1838     0.0259 C.2     
   5 S5            -1.6849     1.8542     0.0358 S.3     
   6 C6            -1.2888    -2.1018     0.0035 C.2     
   7 N7             1.1048     2.1110     0.0028 N.pl3   
   8 C8            -2.2762    -2.8609     0.6603 C.2     
   9 N9            -2.0456    -4.1246     0.4183 N.2     
  10 N10           -0.9108    -4.2214    -0.3961 N.pl3   
  11 C11           -0.4636    -2.9724    -0.6453 C.2     
  12 C12            0.9565     3.4970     0.0117 C.ar    
  13 N13           -0.2561     4.0263     0.0261 N.ar    
  14 C14           -0.4419     5.3332     0.0349 C.ar    
  15 C15            0.6328     6.2022     0.0289 C.ar    
  16 C16            1.9243     5.6871     0.0138 C.ar    
  17 C17            2.0863     4.3119     0.0110 C.ar    
  18 C18           -3.6848    -0.2646     0.0382 C.3     
  19 F19            3.3229     3.7680    -0.0035 F       
  20 F20            0.4307     7.5380     0.0371 F       
  21 H21            1.9916     1.7182    -0.0077 H       
  22 H22           -3.0835    -2.4675     1.2601 H       
  23 H23           -0.5168    -5.0435    -0.7274 H       
  24 H24            0.3961    -2.7103    -1.2443 H       
  25 H25           -1.4469     5.7285     0.0466 H       
  26 H26            2.7813     6.3443     0.0088 H       
  27 H27           -4.0212    -0.3782     1.0687 H       
  28 H28           -4.3016     0.4797    -0.4654 H       
  29 H29           -3.7722    -1.2196    -0.4800 H       
@<TRIPOS>BOND
   1    1    2 2
   2    1    7 1
   3    1    5 1
   4    2    3 1
   5    3    4 2
   6    3    6 1
   7    4    5 1
   8    4   18 1
   9    6    8 1
  10    6   11 2
  11    7   12 1
  12    7   21 1
  13    8    9 2
  14    8   22 1
  15    9   10 1
  16   10   11 1
  17   10   23 1
  18   11   24 1
  19   12   13 ar
  20   12   17 ar
  21   13   14 ar
  22   14   15 ar
  23   14   25 1
  24   15   16 ar
  25   15   20 1
  26   16   17 ar
  27   16   26 1
  28   17   19 1
  29   18   27 1
  30   18   28 1
  31   18   29 1

#	End of record

