#	Name: ASD02198067
#	Creating user name:	WinNT
#	Creation time:	15. 06. 2019 20:18

#	Modifying user name:	WinNT
#	Modification time:	15. 06. 2019 20:18

#	Program:	/corina/corina34_cracker 3.40 0067  02.08.2006

@<TRIPOS>MOLECULE
ASD02198067
  48   51    0    0    0
SMALL
NO_CHARGES


@<TRIPOS>ATOM
   1 C1            -0.0176     1.3653    -0.0370 C.2     
   2 C2             0.0040    -0.0130    -0.0476 C.2     
   3 C3            -1.1841    -0.8124    -0.0590 C.1     
   4 S4             1.5657     1.9977    -0.0258 S.3     
   5 C5             2.2776     0.3922    -0.0354 C.2     
   6 C6             1.2869    -0.5582    -0.0467 C.2     
   7 C7             3.6610     0.1199    -0.0327 C.2     
   8 C8             4.6312     1.2262    -0.1479 C.2     
   9 O9             4.0560    -1.0300     0.0649 O.2     
  10 N10            1.5371    -1.9224    -0.0558 N.pl3   
  11 N11           -1.1626     2.1279    -0.0410 N.pl3   
  12 N12           -2.1266    -1.4465    -0.0680 N.1     
  13 C13            5.1513     2.0137     0.8464 C.2     
  14 O14            5.9850     2.8737     0.2545 O.3     
  15 N15            6.0507     2.7297    -0.9416 N.2     
  16 C16            5.2863     1.7538    -1.3623 C.2     
  17 C17            5.1079     1.2860    -2.7585 C.ar    
  18 C18            4.8426     1.9268     2.3189 C.3     
  19 C19            5.1356     2.1991    -3.8110 C.ar    
  20 C20            4.9695     1.7582    -5.1082 C.ar    
  21 C21            4.7758     0.4128    -5.3646 C.ar    
  22 C22            4.7469    -0.4979    -4.3238 C.ar    
  23 C23            4.9176    -0.0690    -3.0232 C.ar    
  24 C24           -1.0690     3.5899    -0.0288 C.3     
  25 C25           -2.3375     4.2045    -0.6459 C.3     
  26 C26           -2.9881     5.0690     0.4536 C.3     
  27 C27           -1.8180     5.4132     1.4083 C.3     
  28 C28           -0.9930     4.1024     1.4243 C.3     
  29 H29            2.4509    -2.2479    -0.0544 H       
  30 H30            0.7984    -2.5510    -0.0637 H       
  31 H31           -2.0318     1.6977    -0.0519 H       
  32 H32            5.4817     1.1740     2.7803 H       
  33 H33            5.0253     2.8945     2.7862 H       
  34 H34            3.7974     1.6491     2.4552 H       
  35 H35            5.2865     3.2499    -3.6119 H       
  36 H36            4.9905     2.4649    -5.9246 H       
  37 H37            4.6462     0.0721    -6.3813 H       
  38 H38            4.5946    -1.5471    -4.5298 H       
  39 H39            4.8949    -0.7809    -2.2114 H       
  40 H40           -0.1890     3.9121    -0.5856 H       
  41 H41           -2.0731     4.8256    -1.5017 H       
  42 H42           -3.0227     3.4150    -0.9546 H       
  43 H43           -3.4103     5.9777     0.0245 H       
  44 H44           -3.7560     4.5022     0.9801 H       
  45 H45           -1.2256     6.2377     1.0116 H       
  46 H46           -2.1896     5.6480     2.4058 H       
  47 H47           -1.4387     3.3795     2.1076 H       
  48 H48            0.0408     4.3057     1.7036 H       
@<TRIPOS>BOND
   1    1    2 2
   2    1    4 1
   3    1   11 1
   4    2    3 1
   5    2    6 1
   6    3   12 3
   7    4    5 1
   8    5    6 2
   9    5    7 1
  10    6   10 1
  11    7    8 1
  12    7    9 2
  13    8   13 2
  14    8   16 1
  15   10   29 1
  16   10   30 1
  17   11   24 1
  18   11   31 1
  19   13   14 1
  20   13   18 1
  21   14   15 1
  22   15   16 2
  23   16   17 1
  24   17   19 ar
  25   17   23 ar
  26   18   32 1
  27   18   33 1
  28   18   34 1
  29   19   20 ar
  30   19   35 1
  31   20   21 ar
  32   20   36 1
  33   21   22 ar
  34   21   37 1
  35   22   23 ar
  36   22   38 1
  37   23   39 1
  38   24   25 1
  39   24   28 1
  40   24   40 1
  41   25   26 1
  42   25   41 1
  43   25   42 1
  44   26   27 1
  45   26   43 1
  46   26   44 1
  47   27   28 1
  48   27   45 1
  49   27   46 1
  50   28   47 1
  51   28   48 1

#	End of record

