#	Name: ASD05430682
#	Creating user name:	WinNT
#	Creation time:	15. 06. 2019 21:00

#	Modifying user name:	WinNT
#	Modification time:	15. 06. 2019 21:00

#	Program:	/corina/corina34_cracker 3.40 0067  02.08.2006

@<TRIPOS>MOLECULE
ASD05430682
  21   21    0    0    0
SMALL
NO_CHARGES


@<TRIPOS>ATOM
   1 C1            -0.0167     1.3782     0.0096 C.ar    
   2 C2             0.0021    -0.0041     0.0020 C.ar    
   3 C3            -1.1852    -0.7116     0.0096 C.ar    
   4 C4            -2.4106     1.3471     0.0438 C.ar    
   5 C5            -1.2227     2.0536     0.0305 C.ar    
   6 C6             1.2782     2.1491     0.0014 C.3     
   7 C7            -2.3926    -0.0363     0.0252 C.ar    
   8 C8             1.3356     3.0364    -1.2437 C.3     
   9 C9             1.3595     3.0230     1.2546 C.3     
  10 Cl10          -3.8841    -0.9244     0.0419 Cl      
  11 H11            0.9446    -0.5312    -0.0102 H       
  12 H12           -1.1704    -1.7915     0.0029 H       
  13 H13           -3.3527     1.8748     0.0602 H       
  14 H14           -1.2366     3.1334     0.0455 H       
  15 H15            2.1160     1.4519    -0.0103 H       
  16 H16            0.4978     3.7336    -1.2320 H       
  17 H17            2.2722     3.5940    -1.2496 H       
  18 H18            1.2777     2.4138    -2.1365 H       
  19 H19            1.3186     2.3908     2.1417 H       
  20 H20            2.2960     3.5806     1.2487 H       
  21 H21            0.5216     3.7201     1.2664 H       
@<TRIPOS>BOND
   1    1    2 ar
   2    1    6 1
   3    1    5 ar
   4    2    3 ar
   5    2   11 1
   6    3    7 ar
   7    3   12 1
   8    4    5 ar
   9    4    7 ar
  10    4   13 1
  11    5   14 1
  12    6    8 1
  13    6    9 1
  14    6   15 1
  15    7   10 1
  16    8   16 1
  17    8   17 1
  18    8   18 1
  19    9   19 1
  20    9   20 1
  21    9   21 1

#	End of record

