#	Name: ASD03080128
#	Creating user name:	WinNT
#	Creation time:	15. 06. 2019 20:26

#	Modifying user name:	WinNT
#	Modification time:	15. 06. 2019 20:26

#	Program:	/corina/corina34_cracker 3.40 0067  02.08.2006

@<TRIPOS>MOLECULE
ASD03080128
  39   40    0    0    0
SMALL
NO_CHARGES


@<TRIPOS>ATOM
   1 C1            -0.0168     1.3874     0.0097 C.ar    
   2 C2             0.0021    -0.0041     0.0020 C.ar    
   3 C3             1.2227    -0.6615    -0.0132 C.ar    
   4 N4             2.3532     0.0176    -0.0203 N.ar    
   5 C5             2.3710     1.3367    -0.0134 C.ar    
   6 C6             1.1925     2.0624     0.0017 C.ar    
   7 O7            -1.1602    -0.7090     0.0098 O.3     
   8 C8            -1.0546    -2.1341     0.0011 C.3     
   9 C9            -2.4575    -4.2884    -0.0211 C.3     
  10 C10           -2.4500    -4.2215     1.5169 C.3     
  11 N11           -3.0387    -2.8772     1.3613 N.am    
  12 C12           -2.4555    -2.7493     0.0117 C.3     
  13 Cl13           3.8921     2.1732    -0.0229 Cl      
  14 O14           -4.1808    -2.5042     3.3614 O.3     
  15 C15           -5.0025    -1.5984     4.1441 C.3     
  16 C16           -6.3010    -1.3067     3.3893 C.3     
  17 C17           -5.3302    -2.2432     5.4923 C.3     
  18 C18           -4.2423    -0.2910     4.3753 C.3     
  19 C19           -3.8024    -2.0847     2.1393 C.2     
  20 O20           -4.1494    -0.9917     1.7377 O.2     
  21 H21           -0.9518     1.9278     0.0171 H       
  22 H22            1.2480    -1.7412    -0.0188 H       
  23 H23            1.2156     3.1421     0.0073 H       
  24 H24           -0.5243    -2.4537    -0.8959 H       
  25 H25           -0.5066    -2.4632     0.8839 H       
  26 H26           -1.5511    -4.7195    -0.4461 H       
  27 H27           -3.3691    -4.7172    -0.4373 H       
  28 H28           -3.1172    -4.9412     1.9912 H       
  29 H29           -1.4504    -4.2158     1.9515 H       
  30 H30           -3.1271    -2.2934    -0.7158 H       
  31 H31           -6.8426    -2.2382     3.2245 H       
  32 H32           -6.9179    -0.6268     3.9768 H       
  33 H33           -6.0676    -0.8474     2.4287 H       
  34 H34           -4.4051    -2.4510     6.0301 H       
  35 H35           -5.9471    -1.5632     6.0799 H       
  36 H36           -5.8718    -3.1746     5.3276 H       
  37 H37           -4.0089     0.1684     3.4148 H       
  38 H38           -4.8592     0.3890     4.9629 H       
  39 H39           -3.3172    -0.4988     4.9130 H       
@<TRIPOS>BOND
   1    1    2 ar
   2    1    6 ar
   3    1   21 1
   4    2    3 ar
   5    2    7 1
   6    3    4 ar
   7    3   22 1
   8    4    5 ar
   9    5    6 ar
  10    5   13 1
  11    6   23 1
  12    7    8 1
  13    8   12 1
  14    8   24 1
  15    8   25 1
  16    9   10 1
  17    9   12 1
  18    9   26 1
  19    9   27 1
  20   10   11 1
  21   10   28 1
  22   10   29 1
  23   11   12 1
  24   11   19 am
  25   12   30 1
  26   14   15 1
  27   14   19 1
  28   15   16 1
  29   15   17 1
  30   15   18 1
  31   16   31 1
  32   16   32 1
  33   16   33 1
  34   17   34 1
  35   17   35 1
  36   17   36 1
  37   18   37 1
  38   18   38 1
  39   18   39 1
  40   19   20 2

#	End of record

