#	Name: ASD00310170
#	Creating user name:	WinNT
#	Creation time:	15. 06. 2019 18:33

#	Modifying user name:	WinNT
#	Modification time:	15. 06. 2019 18:33

#	Program:	/corina/corina34_cracker 3.40 0067  02.08.2006

@<TRIPOS>MOLECULE
ASD00310170
  20   20    0    0    0
SMALL
NO_CHARGES


@<TRIPOS>ATOM
   1 C1            -0.0169     1.3962     0.0097 C.ar    
   2 C2             0.0021    -0.0041     0.0020 C.ar    
   3 C3             1.2136    -0.6748    -0.0132 C.ar    
   4 C4             2.3998     0.0367    -0.0202 C.ar    
   5 C5             2.3847     1.4213    -0.0122 C.ar    
   6 C6             1.1854     2.1032     0.0020 C.ar    
   7 O7            -1.1633    -0.7017     0.0098 O.3     
   8 C8            -1.0661    -2.1274     0.0012 C.3     
   9 C9            -1.3041     2.1210     0.0198 C.2     
  10 C10           -1.3184     3.4471     0.0270 C.2     
  11 Br11           4.0503    -0.8860    -0.0403 Br      
  12 H12            1.2322    -1.7546    -0.0191 H       
  13 H13            3.3152     1.9695    -0.0170 H       
  14 H14            1.1775     3.1832     0.0076 H       
  15 H15           -0.5199    -2.4596     0.8841 H       
  16 H16           -2.0666    -2.5598     0.0088 H       
  17 H17           -0.5376    -2.4501    -0.8958 H       
  18 H18           -2.2335     1.5709     0.0212 H       
  19 H19           -0.3889     3.9971     0.0256 H       
  20 H20           -2.2594     3.9770     0.0344 H       
@<TRIPOS>BOND
   1    1    2 ar
   2    1    6 ar
   3    1    9 1
   4    2    3 ar
   5    2    7 1
   6    3    4 ar
   7    3   12 1
   8    4    5 ar
   9    4   11 1
  10    5    6 ar
  11    5   13 1
  12    6   14 1
  13    7    8 1
  14    8   15 1
  15    8   16 1
  16    8   17 1
  17    9   10 2
  18    9   18 1
  19   10   19 1
  20   10   20 1

#	End of record

