#	Name: ASD09740446
#	Creating user name:	WinNT
#	Creation time:	15. 06. 2019 21:23

#	Modifying user name:	WinNT
#	Modification time:	15. 06. 2019 21:23

#	Program:	/corina/corina34_cracker 3.40 0067  02.08.2006

@<TRIPOS>MOLECULE
ASD09740446
  54   57    0    0    0
SMALL
NO_CHARGES


@<TRIPOS>ATOM
   1 N1            -0.0944     1.3695     0.7156 N.2     
   2 C2            -0.1041     0.0822     0.9572 C.2     
   3 C3             1.0399     1.9948     0.8634 C.2     
   4 S4             2.2745     0.8454     1.3709 S.3     
   5 C5             1.0789    -0.4492     1.3355 C.2     
   6 C6             1.2560     3.4392     0.6397 C.ar    
   7 C7             0.1961     4.2477     0.2375 C.ar    
   8 C8             2.5238     3.9955     0.8375 C.ar    
   9 C9             2.7308     5.3419     0.6308 C.ar    
  10 C10            1.6829     6.1562     0.2248 C.ar    
  11 C11            0.4059     5.6101     0.0279 C.ar    
  12 O12            1.8923     7.4813     0.0232 O.3     
  13 C13            3.2384     7.9489     0.1299 C.3     
  14 C14            3.4015     9.2265    -0.6960 C.3     
  15 C15            3.5608     8.2448     1.5960 C.3     
  16 C16           -0.6773     6.4479    -0.3910 C.1     
  17 N17           -1.5366     7.1125    -0.7233 N.1     
  18 C18            1.3271    -1.8687     1.6634 C.ar    
  19 C19            2.3999    -2.5459     1.0753 C.ar    
  20 C20            2.6265    -3.8705     1.3860 C.ar    
  21 C21            1.7906    -4.5247     2.2782 C.ar    
  22 C22            0.7283    -3.8601     2.8615 C.ar    
  23 C23            0.4951    -2.5331     2.5644 C.ar    
  24 C24            3.4404    -2.0650     0.0869 C.3     
  25 C25            4.0596    -3.3494    -0.5039 C.3     
  26 C26            3.8364    -4.3745     0.6282 C.3     
  27 N27            3.5679    -5.7047     0.0658 N.3     
  28 C28            3.9317    -6.7622     1.0183 C.3     
  29 C29            3.6428    -8.1094     0.4077 C.2     
  30 O30            3.8983    -9.2295     1.1018 O.3     
  31 O31            3.1813    -8.1812    -0.7066 O.2     
  32 H32           -0.9989    -0.5148     0.8606 H       
  33 H33           -0.7848     3.8211     0.0881 H       
  34 H34            3.3435     3.3674     1.1538 H       
  35 H35            3.7122     5.7652     0.7857 H       
  36 H36            3.9193     7.1847    -0.2447 H       
  37 H37            2.7206     9.9908    -0.3214 H       
  38 H38            4.4283     9.5832    -0.6146 H       
  39 H39            3.1719     9.0157    -1.7405 H       
  40 H40            2.8799     9.0091     1.9707 H       
  41 H41            3.4446     7.3347     2.1844 H       
  42 H42            4.5875     8.6015     1.6774 H       
  43 H43            1.9709    -5.5619     2.5190 H       
  44 H44            0.0830    -4.3788     3.5550 H       
  45 H45           -0.3346    -2.0134     3.0202 H       
  46 H46            2.9704    -1.4750    -0.7000 H       
  47 H47            4.2035    -1.4771     0.5969 H       
  48 H48            3.5342    -3.6519    -1.4098 H       
  49 H49            5.1233    -3.2127    -0.6989 H       
  50 H50            4.7062    -4.4089     1.2842 H       
  51 H51            2.6032    -5.7895    -0.2176 H       
  52 H52            4.9936    -6.6900     1.2533 H       
  53 H53            3.3486    -6.6448     1.9317 H       
  54 H54            3.6964   -10.0701     0.6685 H       
@<TRIPOS>BOND
   1    1    2 1
   2    1    3 2
   3    2    5 2
   4    2   32 1
   5    3    4 1
   6    3    6 1
   7    4    5 1
   8    5   18 1
   9    6    7 ar
  10    6    8 ar
  11    7   11 ar
  12    7   33 1
  13    8    9 ar
  14    8   34 1
  15    9   10 ar
  16    9   35 1
  17   10   11 ar
  18   10   12 1
  19   11   16 1
  20   12   13 1
  21   13   14 1
  22   13   15 1
  23   13   36 1
  24   14   37 1
  25   14   38 1
  26   14   39 1
  27   15   40 1
  28   15   41 1
  29   15   42 1
  30   16   17 3
  31   18   19 ar
  32   18   23 ar
  33   19   20 ar
  34   19   24 1
  35   20   21 ar
  36   20   26 1
  37   21   22 ar
  38   21   43 1
  39   22   23 ar
  40   22   44 1
  41   23   45 1
  42   24   25 1
  43   24   46 1
  44   24   47 1
  45   25   26 1
  46   25   48 1
  47   25   49 1
  48   26   27 1
  49   26   50 1
  50   27   28 1
  51   27   51 1
  52   28   29 1
  53   28   52 1
  54   28   53 1
  55   29   30 1
  56   29   31 2
  57   30   54 1

#	End of record

