#	Name: ASD03731882
#	Creating user name:	WinNT
#	Creation time:	15. 06. 2019 20:46

#	Modifying user name:	WinNT
#	Modification time:	15. 06. 2019 20:46

#	Program:	/corina/corina34_cracker 3.40 0067  02.08.2006

@<TRIPOS>MOLECULE
ASD03731882
  35   36    0    0    0
SMALL
NO_CHARGES


@<TRIPOS>ATOM
   1 C1            -0.7932     1.3867     0.4248 C.2     
   2 C2            -0.5693    -0.0645     0.3073 C.ar    
   3 C3             0.5816    -0.5489    -0.3277 C.ar    
   4 C4             0.7856    -1.9095    -0.4347 C.ar    
   5 C5            -0.1485    -2.7963     0.0858 C.ar    
   6 C6            -1.2922    -2.3182     0.7169 C.ar    
   7 C7            -1.5021    -0.9633     0.8343 C.ar    
   8 O8             0.0212     2.1659    -0.0295 O.2     
   9 O9            -1.9039     1.8502     1.0313 O.3     
  10 F10            1.4894     0.3138    -0.8346 F       
  11 O11            0.0553    -4.1334    -0.0222 O.3     
  12 C12           -0.4546    -4.7708    -1.1088 C.ar    
  13 C13           -1.0645    -4.0413    -2.1195 C.ar    
  14 C14           -1.5816    -4.6909    -3.2232 C.ar    
  15 C15           -1.4918    -6.0684    -3.3215 C.ar    
  16 C16           -0.8842    -6.7976    -2.3149 C.ar    
  17 C17           -0.3610    -6.1511    -1.2118 C.ar    
  18 C18           -2.2445    -3.8993    -4.3209 C.3     
  19 F19           -2.2141    -2.5384    -3.9979 F       
  20 F20           -1.5620    -4.1083    -5.5240 F       
  21 F21           -3.5727    -4.3161    -4.4596 F       
  22 Cl22          -2.1431    -6.8827    -4.7095 Cl      
  23 C23           -2.0586     3.2918     1.1110 C.3     
  24 C24           -3.3689     3.6252     1.8271 C.3     
  25 H25            1.6721    -2.2853    -0.9238 H       
  26 H26           -2.0153    -3.0122     1.1194 H       
  27 H27           -2.3886    -0.5944     1.3286 H       
  28 H28           -1.1351    -2.9663    -2.0430 H       
  29 H29           -0.8154    -7.8725    -2.3934 H       
  30 H30            0.1170    -6.7202    -0.4281 H       
  31 H31           -1.2226     3.7168     1.6664 H       
  32 H32           -2.0774     3.7113     0.1051 H       
  33 H33           -3.4851     4.7073     1.8870 H       
  34 H34           -4.2049     3.2002     1.2717 H       
  35 H35           -3.3502     3.2056     2.8330 H       
@<TRIPOS>BOND
   1    1    2 1
   2    1    8 2
   3    1    9 1
   4    2    3 ar
   5    2    7 ar
   6    3    4 ar
   7    3   10 1
   8    4    5 ar
   9    4   25 1
  10    5    6 ar
  11    5   11 1
  12    6    7 ar
  13    6   26 1
  14    7   27 1
  15    9   23 1
  16   11   12 1
  17   12   13 ar
  18   12   17 ar
  19   13   14 ar
  20   13   28 1
  21   14   15 ar
  22   14   18 1
  23   15   16 ar
  24   15   22 1
  25   16   17 ar
  26   16   29 1
  27   17   30 1
  28   18   19 1
  29   18   20 1
  30   18   21 1
  31   23   24 1
  32   23   31 1
  33   23   32 1
  34   24   33 1
  35   24   34 1
  36   24   35 1

#	End of record

