#	Name: ASD05740047
#	Creating user name:	WinNT
#	Creation time:	15. 06. 2019 21:02

#	Modifying user name:	WinNT
#	Modification time:	15. 06. 2019 21:02

#	Program:	/corina/corina34_cracker 3.40 0067  02.08.2006

@<TRIPOS>MOLECULE
ASD05740047
  51   54    0    0    0
SMALL
NO_CHARGES


@<TRIPOS>ATOM
   1 C1            -0.8108     1.2639    -1.0433 C.3     
   2 C2             0.0913    -4.1112     1.8898 C.ar    
   3 C3            -0.0904    -4.9254     0.7731 C.ar    
   4 C4            -0.0081    -2.7548     1.7797 C.ar    
   5 C5            -0.2934    -2.1768     0.5372 C.ar    
   6 C6            -0.4774    -2.9935    -0.5940 C.ar    
   7 C7            -0.3734    -4.3703    -0.4643 C.ar    
   8 C8            -0.4059    -0.7243     0.3892 C.2     
   9 C9            -0.6851    -0.2244    -0.8427 C.2     
  10 C10           -0.8573    -1.1016    -1.9331 C.2     
  11 O11           -0.7528    -2.4322    -1.7908 O.3     
  12 C12            0.5087     1.8209    -1.5121 C.2     
  13 C13            0.8279     1.9161    -2.8021 C.2     
  14 O14           -1.1072    -0.6402    -3.0322 O.2     
  15 O15            0.0111    -6.2731     0.8989 O.3     
  16 C16            1.1414    -6.8709     0.4491 C.2     
  17 C17            1.4785     2.2777    -0.6339 C.2     
  18 C18            2.5901     2.7457    -1.2200 C.2     
  19 S19            2.4360     2.6085    -2.9666 S.3     
  20 N20            3.7012     3.2574    -0.5471 N.am    
  21 S21            5.2270     2.8037    -1.0035 S.o2    
  22 O22            6.0818     3.4885    -0.0982 O.2     
  23 O23            5.1767     1.3839    -1.0319 O.2     
  24 N24            2.1794    -6.2458    -0.0088 N.2     
  25 S25            1.4073    -8.5593     0.4103 S.3     
  26 C26            3.0096    -8.3017    -0.2753 C.2     
  27 C27            3.1970    -6.9873    -0.4060 C.2     
  28 C28            5.4138     3.4677    -2.6812 C.3     
  29 C29            6.8006     3.1102    -3.2198 C.3     
  30 C30           -0.2176     0.1910     1.5715 C.3     
  31 C31           -1.5393     0.3213     2.3311 C.3     
  32 H32           -1.5771     1.4662    -1.7917 H       
  33 H33           -1.0899     1.7352    -0.1010 H       
  34 H34            0.3073    -4.5572     2.8494 H       
  35 H35            0.1334    -2.1290     2.6485 H       
  36 H36           -0.5121    -5.0076    -1.3251 H       
  37 H37            0.1947     1.6134    -3.6229 H       
  38 H38            1.3491     2.2586     0.4382 H       
  39 H39            3.5794     3.8787     0.1879 H       
  40 H40            3.7178    -9.0729    -0.5400 H       
  41 H41            4.1063    -6.5643    -0.8066 H       
  42 H42            4.6504     3.0375    -3.3294 H       
  43 H43            5.3016     4.5517    -2.6576 H       
  44 H44            6.9128     3.5092    -4.2279 H       
  45 H45            7.5641     3.5405    -2.5716 H       
  46 H46            6.9128     2.0263    -3.2434 H       
  47 H47            0.5428    -0.2227     2.2338 H       
  48 H48            0.0997     1.1739     1.2231 H       
  49 H49           -2.2998     0.7350     1.6689 H       
  50 H50           -1.8566    -0.6616     2.6795 H       
  51 H51           -1.4031     0.9833     3.1863 H       
@<TRIPOS>BOND
   1    1    9 1
   2    1   12 1
   3    1   32 1
   4    1   33 1
   5    2    3 ar
   6    2    4 ar
   7    2   34 1
   8    3   15 1
   9    3    7 ar
  10    4    5 ar
  11    4   35 1
  12    5    6 ar
  13    5    8 1
  14    6    7 ar
  15    6   11 1
  16    7   36 1
  17    8    9 2
  18    8   30 1
  19    9   10 1
  20   10   11 1
  21   10   14 2
  22   12   13 2
  23   12   17 1
  24   13   19 1
  25   13   37 1
  26   15   16 1
  27   16   25 1
  28   16   24 2
  29   17   18 2
  30   17   38 1
  31   18   19 1
  32   18   20 1
  33   20   21 am
  34   20   39 1
  35   21   22 2
  36   21   23 2
  37   21   28 1
  38   24   27 1
  39   25   26 1
  40   26   27 2
  41   26   40 1
  42   27   41 1
  43   28   29 1
  44   28   42 1
  45   28   43 1
  46   29   44 1
  47   29   45 1
  48   29   46 1
  49   30   31 1
  50   30   47 1
  51   30   48 1
  52   31   49 1
  53   31   50 1
  54   31   51 1

#	End of record

