#	Name: ASD01000013
#	Creating user name:	WinNT
#	Creation time:	15. 06. 2019 18:54

#	Modifying user name:	WinNT
#	Modification time:	15. 06. 2019 18:54

#	Program:	/corina/corina34_cracker 3.40 0067  02.08.2006

@<TRIPOS>MOLECULE
ASD01000013
  71   72    0    0    0
SMALL
NO_CHARGES


@<TRIPOS>ATOM
   1 C1            -0.8827     1.2749     0.0594 C.2     
   2 C2            -1.1499    -0.2081     0.0390 C.3     
   3 C3             0.1779    -0.9664     0.0933 C.3     
   4 C4            -2.0046    -0.5890     1.2496 C.3     
   5 C5            -1.8943    -0.5746    -1.2465 C.3     
   6 O6             0.2575     1.6849     0.1121 O.2     
   7 N7            -1.9104     2.1455     0.0134 N.am    
   8 S8            -2.8871     4.7928    -0.0213 S.3     
   9 C9            -1.6643     3.5117     0.0322 C.2     
  10 N10           -0.5066     4.0728     0.0923 N.2     
  11 N11           -0.3842     5.4447     0.1057 N.am    
  12 C12           -1.6725     6.1518     0.0459 C.3     
  13 C13            0.8022     6.0783     0.1686 C.2     
  14 C14            2.0722     5.2848     0.3374 C.3     
  15 C15            3.2678     6.2386     0.3790 C.3     
  16 C16            2.0076     4.4908     1.6437 C.3     
  17 C17            2.2306     4.3195    -0.8389 C.3     
  18 O18            0.8488     7.2887     0.0892 O.2     
  19 C19           -1.8782     6.9892     1.2819 C.ar    
  20 C20           -2.2804     6.3923     2.4621 C.ar    
  21 C21           -2.4692     7.1604     3.5958 C.ar    
  22 C22           -2.2553     8.5253     3.5494 C.ar    
  23 C23           -1.8522     9.1220     2.3695 C.ar    
  24 C24           -1.6593     8.3533     1.2369 C.ar    
  25 C25           -1.7572     7.0154    -1.2142 C.3     
  26 S26           -3.3615     8.8762    -2.3449 S.o2    
  27 O27           -4.7299     9.2046    -2.1480 O.2     
  28 O28           -2.3332     9.8081    -2.0396 O.2     
  29 N29           -3.0909     7.6147    -1.3068 N.am    
  30 C30           -3.1082     8.1667    -3.9951 C.3     
  31 C31           -3.3323     9.2474    -5.0547 C.3     
  32 N32           -3.1272     8.6728    -6.3911 N.3     
  33 C33           -3.3345     9.6840    -7.4363 C.3     
  34 C34           -3.1125     9.0496    -8.8108 C.3     
  35 H35            0.7082    -0.7053     1.0091 H       
  36 H36           -0.0154    -2.0390     0.0785 H       
  37 H37            0.7868    -0.6950    -0.7691 H       
  38 H38           -2.9505    -0.0488     1.2109 H       
  39 H39           -2.1978    -1.6616     1.2348 H       
  40 H40           -1.4742    -0.3279     2.1654 H       
  41 H41           -1.2854    -0.3032    -2.1089 H       
  42 H42           -2.0876    -1.6472    -1.2612 H       
  43 H43           -2.8402    -0.0344    -1.2851 H       
  44 H44           -2.8222     1.8176    -0.0328 H       
  45 H45            3.1549     6.9264     1.2171 H       
  46 H46            4.1863     5.6647     0.5012 H       
  47 H47            3.3138     6.8043    -0.5515 H       
  48 H48            1.1558     3.8113     1.6140 H       
  49 H49            2.9261     3.9169     1.7658 H       
  50 H50            1.8947     5.1786     2.4817 H       
  51 H51            2.2767     4.8851    -1.7695 H       
  52 H52            3.1492     3.7455    -0.7168 H       
  53 H53            1.3789     3.6399    -0.8685 H       
  54 H54           -2.4475     5.3259     2.4983 H       
  55 H55           -2.7841     6.6941     4.5177 H       
  56 H56           -2.4034     9.1255     4.4350 H       
  57 H57           -1.6854    10.1885     2.3332 H       
  58 H58           -1.3408     8.8190     0.3159 H       
  59 H59           -1.0069     7.8045    -1.1650 H       
  60 H60           -1.5757     6.3956    -2.0923 H       
  61 H61           -3.8153     7.2726    -0.7599 H       
  62 H62           -2.0900     7.7857    -4.0744 H       
  63 H63           -3.8144     7.3515    -4.1524 H       
  64 H64           -4.3505     9.6284    -4.9754 H       
  65 H65           -2.6261    10.0626    -4.8974 H       
  66 H66           -2.2120     8.2551    -6.4685 H       
  67 H67           -4.3527    10.0680    -7.3735 H       
  68 H68           -2.6282    10.5022    -7.2955 H       
  69 H69           -2.0943     8.6656    -8.8736 H       
  70 H70           -3.8188     8.2314    -8.9516 H       
  71 H71           -3.2663     9.7999    -9.5864 H       
@<TRIPOS>BOND
   1    1    2 1
   2    1    6 2
   3    1    7 am
   4    2    3 1
   5    2    4 1
   6    2    5 1
   7    3   35 1
   8    3   36 1
   9    3   37 1
  10    4   38 1
  11    4   39 1
  12    4   40 1
  13    5   41 1
  14    5   42 1
  15    5   43 1
  16    7    9 1
  17    7   44 1
  18    8    9 1
  19    8   12 1
  20    9   10 2
  21   10   11 1
  22   11   12 1
  23   11   13 am
  24   12   19 1
  25   12   25 1
  26   13   14 1
  27   13   18 2
  28   14   15 1
  29   14   16 1
  30   14   17 1
  31   15   45 1
  32   15   46 1
  33   15   47 1
  34   16   48 1
  35   16   49 1
  36   16   50 1
  37   17   51 1
  38   17   52 1
  39   17   53 1
  40   19   20 ar
  41   19   24 ar
  42   20   21 ar
  43   20   54 1
  44   21   22 ar
  45   21   55 1
  46   22   23 ar
  47   22   56 1
  48   23   24 ar
  49   23   57 1
  50   24   58 1
  51   25   29 1
  52   25   59 1
  53   25   60 1
  54   26   27 2
  55   26   28 2
  56   26   29 am
  57   26   30 1
  58   29   61 1
  59   30   31 1
  60   30   62 1
  61   30   63 1
  62   31   32 1
  63   31   64 1
  64   31   65 1
  65   32   33 1
  66   32   66 1
  67   33   34 1
  68   33   67 1
  69   33   68 1
  70   34   69 1
  71   34   70 1
  72   34   71 1

#	End of record

