#	Name: ASD03090046
#	Creating user name:	WinNT
#	Creation time:	15. 06. 2019 20:28

#	Modifying user name:	WinNT
#	Modification time:	15. 06. 2019 20:28

#	Program:	/corina/corina34_cracker 3.40 0067  02.08.2006

@<TRIPOS>MOLECULE
ASD03090046
  37   39    0    0    0
SMALL
NO_CHARGES


@<TRIPOS>ATOM
   1 N1            -0.0162     1.3436     0.0094 N.am    
   2 C2            -0.2146     0.1139    -0.5054 C.2     
   3 O3             0.6736    -0.4347    -1.1289 O.2     
   4 N4            -1.3974    -0.5077    -0.3292 N.am    
   5 S5            -3.0414    -2.6956    -0.7248 S.3     
   6 C6            -1.6021    -1.7765    -0.8605 C.2     
   7 N7            -0.7338    -2.4610    -1.5422 N.2     
   8 N8            -1.0809    -3.6025    -1.9548 N.2     
   9 C9            -2.2812    -3.9863    -1.6564 C.2     
  10 C10           -2.9145    -5.3001    -2.0358 C.3     
  11 F11           -1.9667    -6.1076    -2.6737 F       
  12 F12           -3.3769    -5.9449    -0.8836 F       
  13 F13           -3.9878    -5.0673    -2.9025 F       
  14 C14            1.2479     1.9392    -0.0684 C.ar    
  15 C15            1.3622     3.3279    -0.2204 C.ar    
  16 C16            2.6260     3.9129    -0.2965 C.ar    
  17 C17            3.7584     3.1199    -0.2217 C.ar    
  18 C18            3.6388     1.7450    -0.0712 C.ar    
  19 C19            2.3900     1.1582     0.0104 C.ar    
  20 O20            4.9910     3.6891    -0.2963 O.3     
  21 C21            6.1165     2.8127    -0.2124 C.3     
  22 O22           -0.9076     3.9553    -1.1068 O.3     
  23 C23            0.1497     4.1679    -0.3000 C.2     
  24 C24           -0.0931     5.2900     0.4289 C.2     
  25 C25           -1.3594     5.7655     0.0327 C.2     
  26 C26           -1.8219     4.9194    -0.9082 C.2     
  27 H27           -0.7505     1.8174     0.4304 H       
  28 H28           -2.1059    -0.0700     0.1681 H       
  29 H29            2.7211     4.9822    -0.4140 H       
  30 H30            4.5257     1.1315    -0.0138 H       
  31 H31            2.3041     0.0885     0.1316 H       
  32 H32            7.0358     3.3938    -0.2851 H       
  33 H33            6.0952     2.2842     0.7407 H       
  34 H34            6.0771     2.0914    -1.0287 H       
  35 H35            0.5585     5.7315     1.1685 H       
  36 H36           -1.8638     6.6418     0.4121 H       
  37 H37           -2.7704     5.0023    -1.4179 H       
@<TRIPOS>BOND
   1    1    2 am
   2    1   14 1
   3    1   27 1
   4    2    3 2
   5    2    4 am
   6    4    6 1
   7    4   28 1
   8    5    6 1
   9    5    9 1
  10    6    7 2
  11    7    8 1
  12    8    9 2
  13    9   10 1
  14   10   11 1
  15   10   12 1
  16   10   13 1
  17   14   15 ar
  18   14   19 ar
  19   15   16 ar
  20   15   23 1
  21   16   17 ar
  22   16   29 1
  23   17   18 ar
  24   17   20 1
  25   18   19 ar
  26   18   30 1
  27   19   31 1
  28   20   21 1
  29   21   32 1
  30   21   33 1
  31   21   34 1
  32   22   23 1
  33   22   26 1
  34   23   24 2
  35   24   25 1
  36   24   35 1
  37   25   26 2
  38   25   36 1
  39   26   37 1

#	End of record

