#	Name: ASD06340006
#	Creating user name:	WinNT
#	Creation time:	15. 06. 2019 21:05

#	Modifying user name:	WinNT
#	Modification time:	15. 06. 2019 21:05

#	Program:	/corina/corina34_cracker 3.40 0067  02.08.2006

@<TRIPOS>MOLECULE
ASD06340006
  36   38    0    0    0
SMALL
NO_CHARGES


@<TRIPOS>ATOM
   1 N1            -0.0162     1.3409     0.0094 N.am    
   2 C2             0.0021    -0.0041     0.0020 C.2     
   3 C3             1.4207    -0.4490    -0.0139 C.2     
   4 C4             2.1768     0.6804    -0.0151 C.2     
   5 C5             1.2413     1.8159    -0.0000 C.2     
   6 O6            -0.9712    -0.7291     0.0078 O.2     
   7 O7             1.5540     2.9900     0.0029 O.2     
   8 C8             1.9111    -1.8422    -0.0257 C.ar    
   9 C9             2.6365    -2.3404     1.0601 C.ar    
  10 C10            2.8308    -4.4547    -0.0477 C.ar    
  11 C11            1.6471    -2.6703    -1.1200 C.ar    
  12 C12            3.0912    -3.6421     1.0421 C.ar    
  13 C13            2.1081    -3.9699    -1.1241 C.ar    
  14 C14            3.3316    -5.8760    -0.0599 C.3     
  15 C15           -1.2269     2.1657     0.0199 C.3     
  16 C16           -1.6350     2.4408     1.4442 C.ar    
  17 C17           -1.1482     3.5563     2.0996 C.ar    
  18 C18           -1.5225     3.8086     3.4061 C.ar    
  19 C19           -2.3840     2.9457     4.0572 C.ar    
  20 C20           -2.8716     1.8306     3.4016 C.ar    
  21 C21           -2.5007     1.5806     2.0936 C.ar    
  22 H22            3.2554     0.7339    -0.0248 H       
  23 H23            2.8407    -1.7073     1.9109 H       
  24 H24            1.0830    -2.2934    -1.9604 H       
  25 H25            3.6522    -4.0283     1.8803 H       
  26 H26            1.9089    -4.6095    -1.9712 H       
  27 H27            2.5783    -6.5305     0.3785 H       
  28 H28            3.5267    -6.1837    -1.0872 H       
  29 H29            4.2521    -5.9419     0.5202 H       
  30 H30           -1.0286     3.1086    -0.4898 H       
  31 H31           -2.0308     1.6375    -0.4929 H       
  32 H32           -0.4751     4.2306     1.5909 H       
  33 H33           -1.1416     4.6798     3.9183 H       
  34 H34           -2.6759     3.1424     5.0782 H       
  35 H35           -3.5444     1.1562     3.9104 H       
  36 H36           -2.8845     0.7115     1.5801 H       
@<TRIPOS>BOND
   1    1    2 am
   2    1    5 am
   3    1   15 1
   4    2    3 1
   5    2    6 2
   6    3    4 2
   7    3    8 1
   8    4    5 1
   9    4   22 1
  10    5    7 2
  11    8    9 ar
  12    8   11 ar
  13    9   12 ar
  14    9   23 1
  15   10   12 ar
  16   10   13 ar
  17   10   14 1
  18   11   13 ar
  19   11   24 1
  20   12   25 1
  21   13   26 1
  22   14   27 1
  23   14   28 1
  24   14   29 1
  25   15   16 1
  26   15   30 1
  27   15   31 1
  28   16   17 ar
  29   16   21 ar
  30   17   18 ar
  31   17   32 1
  32   18   19 ar
  33   18   33 1
  34   19   20 ar
  35   19   34 1
  36   20   21 ar
  37   20   35 1
  38   21   36 1

#	End of record

