#	Name: ASD03090976
#	Creating user name:	WinNT
#	Creation time:	15. 06. 2019 20:29

#	Modifying user name:	WinNT
#	Modification time:	15. 06. 2019 20:29

#	Program:	/corina/corina34_cracker 3.40 0067  02.08.2006

@<TRIPOS>MOLECULE
ASD03090976
  54   58    0    0    0
SMALL
NO_CHARGES


@<TRIPOS>ATOM
   1 N1            -0.0175     1.3432    -0.0860 N.am    
   2 C2             0.0012    -0.0044    -0.0679 C.2     
   3 O3             1.0649    -0.5993    -0.0775 O.2     
   4 N4            -1.1464    -0.6880    -0.0394 N.2     
   5 C5             1.2409     2.0928    -0.1173 C.3     
   6 N6             2.7869     2.9361    -5.4555 N.ar    
   7 C7             2.3994     4.0038    -6.1097 C.ar    
   8 C8             1.5927     4.9737    -5.5180 C.ar    
   9 C9             1.1852     4.8241    -4.2231 C.ar    
  10 C10            1.6030     3.6760    -3.5238 C.ar    
  11 C11            1.2242     3.4538    -2.1904 C.ar    
  12 C12            1.6486     2.3304    -1.5485 C.ar    
  13 C13            2.4552     1.3980    -2.1973 C.ar    
  14 C14            2.8416     1.5819    -3.4893 C.ar    
  15 C15            2.4235     2.7290    -4.1858 C.ar    
  16 S16            0.2595    -3.0387    -0.0302 S.3     
  17 C17           -1.1280    -2.0187    -0.0215 C.2     
  18 N18           -2.1987    -2.8518     0.0077 N.pl3   
  19 C19           -1.9391    -4.1884     0.0221 C.2     
  20 C20           -0.6633    -4.5510     0.0062 C.2     
  21 O21           -7.3741    -0.8848     0.0781 O.3     
  22 C22           -8.4123    -1.7492    -0.3960 C.3     
  23 C23           -8.2087    -3.1342     0.2329 C.3     
  24 O24           -6.9212    -3.6205    -0.1616 O.3     
  25 C25           -5.8806    -2.7488    -0.0610 C.ar    
  26 C26           -6.1064    -1.3819     0.0568 C.ar    
  27 C27           -4.5831    -3.2357    -0.0763 C.ar    
  28 C28           -3.5113    -2.3592     0.0230 C.ar    
  29 C29           -3.7397    -0.9950     0.1377 C.ar    
  30 C30           -5.0330    -0.5092     0.1545 C.ar    
  31 F31           -8.2679    -3.0328     1.6270 F       
  32 F32           -9.2025    -4.0087    -0.2198 F       
  33 F33           -9.6595    -1.2390    -0.0199 F       
  34 F34           -8.3434    -1.8491    -1.7897 F       
  35 C35           -0.1141    -5.9542     0.0171 C.3     
  36 C36           -1.2961     2.0582    -0.0806 C.3     
  37 H37            1.1060     3.0502     0.3858 H       
  38 H38            2.0170     1.5211     0.3915 H       
  39 H39            2.7140     4.1354    -7.1345 H       
  40 H40            1.2903     5.8432    -6.0828 H       
  41 H41            0.5602     5.5662    -3.7487 H       
  42 H42            0.5994     4.1696    -1.6768 H       
  43 H43            2.7794     0.5151    -1.6663 H       
  44 H44            3.4674     0.8494    -3.9775 H       
  45 H45           -2.7344    -4.9188     0.0454 H       
  46 H46           -4.4058    -4.2972    -0.1662 H       
  47 H47           -2.9060    -0.3127     0.2139 H       
  48 H48           -5.2085     0.5527     0.2435 H       
  49 H49            0.9752    -5.9182    -0.0005 H       
  50 H50           -0.4460    -6.4673     0.9197 H       
  51 H51           -0.4741    -6.4922    -0.8598 H       
  52 H52           -1.6010     2.2495     0.9483 H       
  53 H53           -1.1850     3.0052    -0.6087 H       
  54 H54           -2.0536     1.4519    -0.5772 H       
@<TRIPOS>BOND
   1    1    2 am
   2    1    5 1
   3    1   36 1
   4    2    3 2
   5    2    4 1
   6    4   17 2
   7    5   12 1
   8    5   37 1
   9    5   38 1
  10    6    7 ar
  11    6   15 ar
  12    7    8 ar
  13    7   39 1
  14    8    9 ar
  15    8   40 1
  16    9   10 ar
  17    9   41 1
  18   10   11 ar
  19   10   15 ar
  20   11   12 ar
  21   11   42 1
  22   12   13 ar
  23   13   14 ar
  24   13   43 1
  25   14   15 ar
  26   14   44 1
  27   16   17 1
  28   16   20 1
  29   17   18 1
  30   18   19 1
  31   18   28 1
  32   19   20 2
  33   19   45 1
  34   20   35 1
  35   21   22 1
  36   21   26 1
  37   22   23 1
  38   22   33 1
  39   22   34 1
  40   23   24 1
  41   23   31 1
  42   23   32 1
  43   24   25 1
  44   25   26 ar
  45   25   27 ar
  46   26   30 ar
  47   27   28 ar
  48   27   46 1
  49   28   29 ar
  50   29   30 ar
  51   29   47 1
  52   30   48 1
  53   35   49 1
  54   35   50 1
  55   35   51 1
  56   36   52 1
  57   36   53 1
  58   36   54 1

#	End of record

