#	Name: ASD01883467
#	Creating user name:	WinNT
#	Creation time:	15. 06. 2019 19:46

#	Modifying user name:	WinNT
#	Modification time:	15. 06. 2019 19:46

#	Program:	/corina/corina34_cracker 3.40 0067  02.08.2006

@<TRIPOS>MOLECULE
ASD01883467
  66   69    0    0    0
SMALL
NO_CHARGES


@<TRIPOS>ATOM
   1 N1             0.0128     1.4367     0.6975 N.am    
   2 C2            -0.3144     0.9342    -0.5074 C.2     
   3 C3            -1.5440     0.2553    -0.6785 C.2     
   4 C4            -2.4008     0.1223     0.4272 C.2     
   5 C5            -2.0028     0.6692     1.6611 C.2     
   6 C6            -0.8143     1.3028     1.7668 C.2     
   7 O7             0.4476     1.0641    -1.4505 O.2     
   8 C8            -1.9082    -0.2852    -1.9535 C.1     
   9 N9            -2.1972    -0.7140    -2.9650 N.1     
  10 N10           -3.6070    -0.5304     0.3055 N.pl3   
  11 C11           -4.8714     0.1884     0.5139 C.3     
  12 C12           -5.7010    -0.5658     1.5577 C.3     
  13 C13           -5.8708    -2.0207     1.1144 C.3     
  14 C14           -4.4975    -2.6888     1.0143 C.3     
  15 C15           -3.6544    -1.9573    -0.0412 C.3     
  16 C16            1.2893     2.1369     0.8607 C.3     
  17 C17            1.0944     3.6266     0.5714 C.3     
  18 C18            2.4275     4.3579     0.7418 C.3     
  19 C19            3.4177     3.8663    -0.3159 C.3     
  20 C20            2.2086     5.8629     0.5751 C.3     
  21 C21           -6.7152    -2.7574     2.1220 C.ar    
  22 C22           -6.3001    -2.8477     3.4375 C.ar    
  23 C23           -7.0747    -3.5235     4.3618 C.ar    
  24 C24           -8.2645    -4.1085     3.9707 C.ar    
  25 C25           -8.6800    -4.0174     2.6555 C.ar    
  26 C26           -7.9076    -3.3379     1.7321 C.ar    
  27 N27           -6.5303    -2.0588    -0.1977 N.3     
  28 C28           -7.8396    -1.3920    -0.1487 C.3     
  29 C29           -8.4641    -1.4021    -1.5465 C.3     
  30 O30           -8.5607    -2.7515    -2.0102 O.3     
  31 C31           -7.3036    -3.4308    -2.0710 C.3     
  32 C32           -6.6675    -3.4413    -0.6785 C.3     
  33 H33           -2.6455     0.5793     2.5243 H       
  34 H34           -0.5195     1.7186     2.7189 H       
  35 H35           -4.6638     1.1970     0.8713 H       
  36 H36           -5.4228     0.2376    -0.4251 H       
  37 H37           -5.1895    -0.5360     2.5198 H       
  38 H38           -6.6808    -0.0974     1.6514 H       
  39 H39           -3.9973    -2.6390     1.9814 H       
  40 H40           -4.6207    -3.7314     0.7212 H       
  41 H41           -4.1081    -2.0852    -1.0241 H       
  42 H42           -2.6433    -2.3644    -0.0475 H       
  43 H43            1.6459     2.0089     1.8827 H       
  44 H44            2.0212     1.7246     0.1662 H       
  45 H45            0.7378     3.7547    -0.4506 H       
  46 H46            0.3625     4.0389     1.2660 H       
  47 H47            2.8278     4.1568     1.7356 H       
  48 H48            4.3674     4.3873    -0.1945 H       
  49 H49            3.5737     2.7941    -0.1971 H       
  50 H50            3.0175     4.0674    -1.3096 H       
  51 H51            1.5032     6.2132     1.3287 H       
  52 H52            3.1583     6.3839     0.6965 H       
  53 H53            1.8083     6.0640    -0.4186 H       
  54 H54           -5.3705    -2.3907     3.7431 H       
  55 H55           -6.7500    -3.5947     5.3894 H       
  56 H56           -8.8693    -4.6370     4.6927 H       
  57 H57           -9.6094    -4.4747     2.3499 H       
  58 H58           -8.2322    -3.2667     0.7045 H       
  59 H59           -8.4922    -1.9218     0.5453 H       
  60 H60           -7.7115    -0.3624     0.1853 H       
  61 H61           -9.4594    -0.9598    -1.5037 H       
  62 H62           -7.8384    -0.8267    -2.2288 H       
  63 H63           -7.4597    -4.4557    -2.4076 H       
  64 H64           -6.6442    -2.9144    -2.7685 H       
  65 H65           -5.6837    -3.9076    -0.7313 H       
  66 H66           -7.3013    -4.0039     0.0070 H       
@<TRIPOS>BOND
   1    1    2 am
   2    1   16 1
   3    1    6 1
   4    2    3 1
   5    2    7 2
   6    3    4 2
   7    3    8 1
   8    4    5 1
   9    4   10 1
  10    5    6 2
  11    5   33 1
  12    6   34 1
  13    8    9 3
  14   10   11 1
  15   10   15 1
  16   11   12 1
  17   11   35 1
  18   11   36 1
  19   12   13 1
  20   12   37 1
  21   12   38 1
  22   13   14 1
  23   13   21 1
  24   13   27 1
  25   14   15 1
  26   14   39 1
  27   14   40 1
  28   15   41 1
  29   15   42 1
  30   16   17 1
  31   16   43 1
  32   16   44 1
  33   17   18 1
  34   17   45 1
  35   17   46 1
  36   18   19 1
  37   18   20 1
  38   18   47 1
  39   19   48 1
  40   19   49 1
  41   19   50 1
  42   20   51 1
  43   20   52 1
  44   20   53 1
  45   21   22 ar
  46   21   26 ar
  47   22   23 ar
  48   22   54 1
  49   23   24 ar
  50   23   55 1
  51   24   25 ar
  52   24   56 1
  53   25   26 ar
  54   25   57 1
  55   26   58 1
  56   27   28 1
  57   27   32 1
  58   28   29 1
  59   28   59 1
  60   28   60 1
  61   29   30 1
  62   29   61 1
  63   29   62 1
  64   30   31 1
  65   31   32 1
  66   31   63 1
  67   31   64 1
  68   32   65 1
  69   32   66 1

#	End of record

