#	Name: ASD01202028
#	Creating user name:	WinNT
#	Creation time:	15. 06. 2019 19:09

#	Modifying user name:	WinNT
#	Modification time:	15. 06. 2019 19:09

#	Program:	/corina/corina34_cracker 3.40 0067  02.08.2006

@<TRIPOS>MOLECULE
ASD01202028
  41   44    0    0    0
SMALL
NO_CHARGES


@<TRIPOS>ATOM
   1 C1            -0.0172     1.4164     0.0098 C.2     
   2 C2             0.0021    -0.0041     0.0020 C.2     
   3 C3             1.2871     1.8234    -0.0004 C.2     
   4 C4            -1.2105     2.2818     0.0205 C.2     
   5 C5             1.3088    -0.3739    -0.0124 C.2     
   6 O6             2.0693     0.7389    -0.0137 O.3     
   7 O7            -2.3211     1.7861     0.0233 O.2     
   8 N8            -1.0709     3.6223     0.0271 N.am    
   9 C9             1.8111    -1.7595    -0.0239 C.ar    
  10 C10           -2.1954     4.4377     0.0371 C.2     
  11 S11           -3.8085     3.8785     0.0495 S.3     
  12 N12           -2.1725     5.7270     0.0440 N.2     
  13 C13           -4.3979     5.5430     0.0576 C.2     
  14 C14           -3.3460     6.3679     0.0538 C.2     
  15 H15           -0.1851     4.0176     0.0248 H       
  16 C16            2.7815    -2.1566    -0.9697 C.ar    
  17 C17            3.2466    -3.4760    -0.9658 C.ar    
  18 C18            2.7576    -4.3752    -0.0440 C.ar    
  19 C19            1.8044    -3.9838     0.8845 C.ar    
  20 C20            1.3355    -2.6873     0.9033 C.ar    
  21 C21            3.2973    -1.1937    -1.9486 C.2     
  22 C22            4.3329    -1.6240    -2.9553 C.3     
  23 O23            2.8902    -0.0509    -1.9478 O.2     
  24 C24           -3.8279     7.8162     0.0583 C.3     
  25 C25           -5.3002     7.7476     0.5115 C.3     
  26 C26           -5.6987     6.3244     0.0713 C.3     
  27 H27           -0.8549    -0.6614     0.0070 H       
  28 H28            1.6286     2.8480     0.0013 H       
  29 H29            3.9885    -3.7894    -1.6854 H       
  30 H30            3.1189    -5.3929    -0.0444 H       
  31 H31            1.4297    -4.6993     1.6015 H       
  32 H32            0.5932    -2.3922     1.6301 H       
  33 H33            4.5730    -2.6762    -2.8024 H       
  34 H34            3.9409    -1.4835    -3.9626 H       
  35 H35            5.2338    -1.0237    -2.8290 H       
  36 H36           -3.2424     8.4078     0.7620 H       
  37 H37           -3.7595     8.2410    -0.9432 H       
  38 H38           -5.3810     7.8564     1.5931 H       
  39 H39           -5.9016     8.4986    -0.0007 H       
  40 H40           -6.1364     6.3445    -0.9268 H       
  41 H41           -6.3982     5.8884     0.7845 H       
@<TRIPOS>BOND
   1    1    2 1
   2    1    3 2
   3    1    4 1
   4    2    5 2
   5    2   27 1
   6    3    6 1
   7    3   28 1
   8    4    7 2
   9    4    8 am
  10    5    9 1
  11    5    6 1
  12    8   15 1
  13    8   10 1
  14    9   16 ar
  15    9   20 ar
  16   10   12 2
  17   10   11 1
  18   11   13 1
  19   12   14 1
  20   13   14 2
  21   13   26 1
  22   14   24 1
  23   16   17 ar
  24   16   21 1
  25   17   18 ar
  26   17   29 1
  27   18   19 ar
  28   18   30 1
  29   19   20 ar
  30   19   31 1
  31   20   32 1
  32   21   22 1
  33   21   23 2
  34   22   33 1
  35   22   34 1
  36   22   35 1
  37   24   25 1
  38   24   36 1
  39   24   37 1
  40   25   26 1
  41   25   38 1
  42   25   39 1
  43   26   40 1
  44   26   41 1

#	End of record

