#	Name: ASD01911989
#	Creating user name:	WinNT
#	Creation time:	15. 06. 2019 19:58

#	Modifying user name:	WinNT
#	Modification time:	15. 06. 2019 19:58

#	Program:	/corina/corina34_cracker 3.40 0067  02.08.2006

@<TRIPOS>MOLECULE
ASD01911989
  40   42    0    0    0
SMALL
NO_CHARGES


@<TRIPOS>ATOM
   1 C1             0.7735     1.1509    -0.1319 C.ar    
   2 C2             0.5656    -0.2264    -0.1285 C.ar    
   3 C3             1.6744    -1.0608    -0.2497 C.ar    
   4 N4             2.8755    -0.5189    -0.3628 N.ar    
   5 C5             3.0304     0.7900    -0.3618 C.ar    
   6 N6             2.0071     1.6130    -0.2493 N.ar    
   7 N7            -0.7214    -0.7572    -0.0062 N.pl3   
   8 C8            -0.9091    -2.1430    -0.0048 C.ar    
   9 C9            -1.3086    -4.1884    -1.2010 C.ar    
  10 C10           -1.2824    -4.8905    -0.0105 C.ar    
  11 C11           -1.0748    -4.2210     1.1883 C.ar    
  12 C12           -0.8882    -2.8456     1.1911 C.ar    
  13 N13           -1.0485    -4.9334     2.3926 N.am    
  14 C14           -1.5516    -4.3803     3.5139 C.2     
  15 C15           -1.6185    -5.1700     4.7619 C.ar    
  16 O16           -1.9505    -3.2320     3.4991 O.2     
  17 C17           -1.1606    -6.4894     4.7806 C.ar    
  18 C18           -1.1227    -2.8184    -1.2027 C.ar    
  19 C19           -1.8740     0.1382     0.1206 C.3     
  20 C20           -1.2222    -7.2286     5.9454 C.ar    
  21 C21           -1.7361    -6.6702     7.0986 C.ar    
  22 C22           -2.1973    -5.3509     7.0943 C.ar    
  23 C23           -2.1331    -4.5977     5.9235 C.ar    
  24 C24           -2.7305    -4.7731     8.2911 C.1     
  25 F25           -1.1489    -2.1349    -2.3678 F       
  26 N26           -3.1535    -4.3147     9.2406 N.1     
  27 H27           -0.0606     1.8313    -0.0446 H       
  28 H28            1.5550    -2.1342    -0.2509 H       
  29 H29            4.0250     1.2001    -0.4560 H       
  30 H30           -1.4702    -4.7116    -2.1319 H       
  31 H31           -1.4283    -5.9606    -0.0122 H       
  32 H32           -0.7267    -2.3234     2.1225 H       
  33 H33           -0.6681    -5.8253     2.4203 H       
  34 H34           -0.7578    -6.9326     3.8819 H       
  35 H35           -2.2623     0.3732    -0.8704 H       
  36 H36           -2.6508    -0.3505     0.7088 H       
  37 H37           -1.5665     1.0582     0.6179 H       
  38 H38           -0.8671    -8.2486     5.9542 H       
  39 H39           -1.7820    -7.2541     8.0060 H       
  40 H40           -2.4881    -3.5778     5.9145 H       
@<TRIPOS>BOND
   1    1    2 ar
   2    1    6 ar
   3    1   27 1
   4    2    3 ar
   5    2    7 1
   6    3    4 ar
   7    3   28 1
   8    4    5 ar
   9    5    6 ar
  10    5   29 1
  11    7    8 1
  12    7   19 1
  13    8   18 ar
  14    8   12 ar
  15    9   10 ar
  16    9   18 ar
  17    9   30 1
  18   10   11 ar
  19   10   31 1
  20   11   12 ar
  21   11   13 1
  22   12   32 1
  23   13   14 am
  24   13   33 1
  25   14   15 1
  26   14   16 2
  27   15   17 ar
  28   15   23 ar
  29   17   20 ar
  30   17   34 1
  31   18   25 1
  32   19   35 1
  33   19   36 1
  34   19   37 1
  35   20   21 ar
  36   20   38 1
  37   21   22 ar
  38   21   39 1
  39   22   23 ar
  40   22   24 1
  41   23   40 1
  42   24   26 3

#	End of record

