#	Name: ASD03091157
#	Creating user name:	WinNT
#	Creation time:	15. 06. 2019 20:30

#	Modifying user name:	WinNT
#	Modification time:	15. 06. 2019 20:30

#	Program:	/corina/corina34_cracker 3.40 0067  02.08.2006

@<TRIPOS>MOLECULE
ASD03091157
  54   56    0    0    0
SMALL
NO_CHARGES


@<TRIPOS>ATOM
   1 C1             0.0678     1.4153     0.5673 C.2     
   2 C2             0.0435    -0.0320     0.2710 C.ar    
   3 C3             1.2122    -0.7099    -0.1184 C.ar    
   4 C4             1.1424    -2.0712    -0.3873 C.ar    
   5 N5             0.0029    -2.7236    -0.2812 N.ar    
   6 C6            -1.1197    -2.1234     0.0823 C.ar    
   7 C7            -1.1411    -0.7672     0.3755 C.ar    
   8 O8             1.1243     2.0165     0.5749 O.2     
   9 N9            -1.0820     2.0701     0.8238 N.am    
  10 C10           -1.0578     3.5052     1.1176 C.3     
  11 C11           -2.4841     3.9982     1.3697 C.3     
  12 C12           -2.4589     5.4969     1.6766 C.3     
  13 C13           -3.3381     3.7467     0.1254 C.3     
  14 C14           -3.0816     3.2440     2.5593 C.3     
  15 O15           -3.7910     5.9573     1.9121 O.3     
  16 N16           -4.6478    -4.3760    -0.7999 N.3     
  17 C17           -4.7005    -2.9518    -0.4365 C.3     
  18 C18           -3.3509    -2.2889    -0.6642 C.3     
  19 N19           -2.2956    -2.8654     0.1774 N.3     
  20 C20           -2.0609    -4.2722    -0.1772 C.3     
  21 C21           -2.8793    -5.1893     0.7192 C.3     
  22 C22           -4.3587    -5.1881     0.3907 C.3     
  23 C23           -3.8128    -4.7178    -1.9314 C.3     
  24 C24           -2.3394    -4.4657    -1.6566 C.3     
  25 N25            2.4203    -0.0275    -0.2333 N.pl3   
  26 H26            2.0341    -2.6015    -0.6875 H       
  27 H27           -2.0600    -0.2860     0.6762 H       
  28 H28           -1.9254     1.5912     0.8138 H       
  29 H29           -0.4494     3.6843     2.0040 H       
  30 H30           -0.6322     4.0424     0.2701 H       
  31 H31           -1.8505     5.6761     2.5631 H       
  32 H32           -2.0332     6.0342     0.8291 H       
  33 H33           -3.3561     2.6789    -0.0932 H       
  34 H34           -4.3542     4.0979     0.3051 H       
  35 H35           -2.9125     4.2839    -0.7221 H       
  36 H36           -2.4731     3.4232     3.4458 H       
  37 H37           -4.0977     3.5952     2.7390 H       
  38 H38           -3.0995     2.1763     2.3407 H       
  39 H39           -3.8511     6.9013     2.1134 H       
  40 H40           -5.4531    -2.4530    -1.0471 H       
  41 H41           -4.9731    -2.8593     0.6148 H       
  42 H42           -3.0717    -2.4073    -1.7112 H       
  43 H43           -3.4380    -1.2253    -0.4422 H       
  44 H44           -1.0058    -4.4901    -0.0114 H       
  45 H45           -2.4998    -6.2061     0.6185 H       
  46 H46           -2.7509    -4.8721     1.7541 H       
  47 H47           -4.9113    -4.7849     1.2393 H       
  48 H48           -4.6839    -6.2127     0.2102 H       
  49 H49           -3.9528    -5.7724    -2.1684 H       
  50 H50           -4.1194    -4.1206    -2.7902 H       
  51 H51           -2.0262    -3.5718    -2.1960 H       
  52 H52           -1.7611    -5.3162    -2.0177 H       
  53 H53            2.4261     0.9399    -0.3037 H       
  54 H54            3.2562    -0.5195    -0.2430 H       
@<TRIPOS>BOND
   1    1    2 1
   2    1    8 2
   3    1    9 am
   4    2    3 ar
   5    2    7 ar
   6    3    4 ar
   7    3   25 1
   8    4    5 ar
   9    4   26 1
  10    5    6 ar
  11    6    7 ar
  12    6   19 1
  13    7   27 1
  14    9   10 1
  15    9   28 1
  16   10   11 1
  17   10   29 1
  18   10   30 1
  19   11   12 1
  20   11   13 1
  21   11   14 1
  22   12   15 1
  23   12   31 1
  24   12   32 1
  25   13   33 1
  26   13   34 1
  27   13   35 1
  28   14   36 1
  29   14   37 1
  30   14   38 1
  31   15   39 1
  32   16   17 1
  33   16   22 1
  34   16   23 1
  35   17   18 1
  36   17   40 1
  37   17   41 1
  38   18   19 1
  39   18   42 1
  40   18   43 1
  41   19   20 1
  42   20   21 1
  43   20   24 1
  44   20   44 1
  45   21   22 1
  46   21   45 1
  47   21   46 1
  48   22   47 1
  49   22   48 1
  50   23   24 1
  51   23   49 1
  52   23   50 1
  53   24   51 1
  54   24   52 1
  55   25   53 1
  56   25   54 1

#	End of record

