#	Name: ASD06170110
#	Creating user name:	WinNT
#	Creation time:	15. 06. 2019 21:05

#	Modifying user name:	WinNT
#	Modification time:	15. 06. 2019 21:05

#	Program:	/corina/corina34_cracker 3.40 0067  02.08.2006

@<TRIPOS>MOLECULE
ASD06170110
  66   70    0    0    0
SMALL
NO_CHARGES


@<TRIPOS>ATOM
   1 N1             0.1181     1.7599    -0.0781 N.pl3   
   2 N2             0.0301     0.3829     0.1469 N.am    
   3 C3             1.2659    -0.0887     0.4130 C.2     
   4 C4             2.1765     1.0655     0.3494 C.2     
   5 C5             1.3970     2.1638     0.0430 C.2     
   6 C6             3.6277     1.0524     0.5694 C.2     
   7 O7             4.2651     2.0857     0.4862 O.2     
   8 N8             4.2543    -0.1041     0.8635 N.am    
   9 C9            -1.0124     2.6329    -0.4036 C.3     
  10 C10           -1.5622     3.2559     0.8811 C.3     
  11 C11           -2.7429     4.1676     0.5412 C.3     
  12 C12           -1.1425    -0.3782     0.1038 C.ar    
  13 C13           -2.0538    -0.1947    -0.9281 C.ar    
  14 C14           -3.2105    -0.9482    -0.9679 C.ar    
  15 C15           -3.4621    -1.8843     0.0183 C.ar    
  16 C16           -2.5567    -2.0695     1.0471 C.ar    
  17 C17           -1.3954    -1.3232     1.0897 C.ar    
  18 O18            1.5680    -1.2417     0.6579 O.2     
  19 C19            1.8942     3.5761    -0.1277 C.3     
  20 C20            5.6532    -0.1511     0.9071 C.ar    
  21 C21            6.3768     0.9903     1.2275 C.ar    
  22 C22            7.7575     0.9428     1.2709 C.ar    
  23 C23            8.4204    -0.2469     0.9938 C.ar    
  24 C24            7.6969    -1.3856     0.6740 C.ar    
  25 C25            6.3167    -1.3400     0.6358 C.ar    
  26 O26            9.7789    -0.2940     1.0358 O.3     
  27 N27           11.5829    -0.2264     4.7439 N.ar    
  28 C28           10.2816    -0.0908     4.6404 C.ar    
  29 C29            9.6392    -0.1083     3.4091 C.ar    
  30 C30           10.3790    -0.2725     2.2510 C.ar    
  31 C31           11.7796    -0.4177     2.3743 C.ar    
  32 C32           12.5953    -0.5877     1.2462 C.ar    
  33 C33           13.9409    -0.7242     1.3976 C.ar    
  34 C34           14.5239    -0.6973     2.6678 C.ar    
  35 C35           13.7502    -0.5325     3.7943 C.ar    
  36 C36           12.3595    -0.3889     3.6661 C.ar    
  37 O37           15.8695    -0.8358     2.7918 O.3     
  38 C38           16.6182    -1.0040     1.5864 C.3     
  39 F39            8.4624     2.0525     1.5820 F       
  40 H40            3.7363    -0.9039     1.0449 H       
  41 H41           -0.6794     3.4229    -1.0768 H       
  42 H42           -1.7949     2.0488    -0.8879 H       
  43 H43           -1.8952     2.4659     1.5543 H       
  44 H44           -0.7797     3.8400     1.3654 H       
  45 H45           -3.5254     3.5834     0.0569 H       
  46 H46           -3.1346     4.6114     1.4565 H       
  47 H47           -2.4099     4.9576    -0.1320 H       
  48 H48           -1.8583     0.5368    -1.6982 H       
  49 H49           -3.9196    -0.8059    -1.7701 H       
  50 H50           -4.3677    -2.4718    -0.0148 H       
  51 H51           -2.7561    -2.8014     1.8158 H       
  52 H52           -0.6868    -1.4712     1.8912 H       
  53 H53            1.8643     4.0905     0.8328 H       
  54 H54            2.9190     3.5582    -0.4985 H       
  55 H55            1.2589     4.1012    -0.8410 H       
  56 H56            5.8609     1.9145     1.4424 H       
  57 H57            8.2125    -2.3099     0.4588 H       
  58 H58            5.7538    -2.2285     0.3906 H       
  59 H59            9.6941     0.0380     5.5374 H       
  60 H60            8.5665     0.0051     3.3556 H       
  61 H61           12.1566    -0.6105     0.2596 H       
  62 H62           14.5654    -0.8553     0.5263 H       
  63 H63           14.2104    -0.5138     4.7712 H       
  64 H64           16.4712    -0.1363     0.9433 H       
  65 H65           17.6768    -1.1027     1.8269 H       
  66 H66           16.2779    -1.9012     1.0694 H       
@<TRIPOS>BOND
   1    1    2 1
   2    1    5 1
   3    1    9 1
   4    2    3 am
   5    2   12 1
   6    3    4 1
   7    3   18 2
   8    4    5 2
   9    4    6 1
  10    5   19 1
  11    6    7 2
  12    6    8 am
  13    8   20 1
  14    8   40 1
  15    9   10 1
  16    9   41 1
  17    9   42 1
  18   10   11 1
  19   10   43 1
  20   10   44 1
  21   11   45 1
  22   11   46 1
  23   11   47 1
  24   12   13 ar
  25   12   17 ar
  26   13   14 ar
  27   13   48 1
  28   14   15 ar
  29   14   49 1
  30   15   16 ar
  31   15   50 1
  32   16   17 ar
  33   16   51 1
  34   17   52 1
  35   19   53 1
  36   19   54 1
  37   19   55 1
  38   20   21 ar
  39   20   25 ar
  40   21   22 ar
  41   21   56 1
  42   22   23 ar
  43   22   39 1
  44   23   24 ar
  45   23   26 1
  46   24   25 ar
  47   24   57 1
  48   25   58 1
  49   26   30 1
  50   27   28 ar
  51   27   36 ar
  52   28   29 ar
  53   28   59 1
  54   29   30 ar
  55   29   60 1
  56   30   31 ar
  57   31   32 ar
  58   31   36 ar
  59   32   33 ar
  60   32   61 1
  61   33   34 ar
  62   33   62 1
  63   34   35 ar
  64   34   37 1
  65   35   36 ar
  66   35   63 1
  67   37   38 1
  68   38   64 1
  69   38   65 1
  70   38   66 1

#	End of record

