#	Name: ASD03430579
#	Creating user name:	WinNT
#	Creation time:	15. 06. 2019 20:41

#	Modifying user name:	WinNT
#	Modification time:	15. 06. 2019 20:41

#	Program:	/corina/corina34_cracker 3.40 0067  02.08.2006

@<TRIPOS>MOLECULE
ASD03430579
  44   48    0    0    0
SMALL
NO_CHARGES


@<TRIPOS>ATOM
   1 N1            -0.0161     1.3395     0.0094 N.am    
   2 C2             0.0027    -0.0036     0.0437 C.2     
   3 C3             1.4550    -0.4300     0.0112 C.3     
   4 C4             2.2195     0.8724    -0.0455 C.ar    
   5 C5             3.5634     1.1679    -0.0934 C.ar    
   6 C6             3.9787     2.4873    -0.1401 C.ar    
   7 C7             3.0411     3.5041    -0.1383 C.ar    
   8 C8             1.6942     3.2107    -0.0904 C.ar    
   9 C9             1.2683     1.8846    -0.0432 C.ar    
  10 O10           -0.9624    -0.7367     0.0920 O.2     
  11 O11            2.7753    -3.3139     4.6768 O.3     
  12 C12            2.9579    -2.5630     5.8820 C.3     
  13 C13            1.7965    -1.5678     6.0086 C.3     
  14 O14            1.8170    -0.7076     4.8642 O.3     
  15 C15            1.9755    -1.3064     3.6511 C.ar    
  16 C16            2.4561    -2.6075     3.5580 C.ar    
  17 C17            1.6517    -0.6050     2.4999 C.ar    
  18 C18            1.8084    -1.1957     1.2601 C.ar    
  19 C19            2.2901    -2.4924     1.1647 C.ar    
  20 C20            2.6138    -3.1980     2.3136 C.ar    
  21 O21            2.4447    -3.0722    -0.0555 O.3     
  22 C22           -1.1899     2.1049     0.0193 C.ar    
  23 C23           -1.4894     2.9042     1.1145 C.ar    
  24 C24           -2.6465     3.6581     1.1221 C.ar    
  25 C25           -3.5077     3.6174     0.0385 C.ar    
  26 C26           -3.2108     2.8209    -1.0547 C.ar    
  27 C27           -2.0521     2.0694    -1.0684 C.ar    
  28 F28           -4.6393     4.3553     0.0480 F       
  29 H29            1.6569    -1.0303    -0.8759 H       
  30 H30            4.2925     0.3712    -0.0942 H       
  31 H31            5.0321     2.7223    -0.1774 H       
  32 H32            3.3655     4.5336    -0.1744 H       
  33 H33            0.9682     4.0103    -0.0890 H       
  34 H34            2.9593    -3.2372     6.7385 H       
  35 H35            3.9029    -2.0215     5.8382 H       
  36 H36            0.8510    -2.1088     6.0449 H       
  37 H37            1.9170    -0.9756     6.9158 H       
  38 H38            1.2766     0.4052     2.5719 H       
  39 H39            2.9893    -4.2078     2.2390 H       
  40 H40            3.3155    -2.9299    -0.4512 H       
  41 H41           -0.8181     2.9359     1.9599 H       
  42 H42           -2.8800     4.2797     1.9739 H       
  43 H43           -3.8840     2.7902    -1.8987 H       
  44 H44           -1.8189     1.4515    -1.9229 H       
@<TRIPOS>BOND
   1    1    2 am
   2    1    9 1
   3    1   22 1
   4    2    3 1
   5    2   10 2
   6    3    4 1
   7    3   18 1
   8    3   29 1
   9    4    5 ar
  10    4    9 ar
  11    5    6 ar
  12    5   30 1
  13    6    7 ar
  14    6   31 1
  15    7    8 ar
  16    7   32 1
  17    8    9 ar
  18    8   33 1
  19   11   12 1
  20   11   16 1
  21   12   13 1
  22   12   34 1
  23   12   35 1
  24   13   14 1
  25   13   36 1
  26   13   37 1
  27   14   15 1
  28   15   16 ar
  29   15   17 ar
  30   16   20 ar
  31   17   18 ar
  32   17   38 1
  33   18   19 ar
  34   19   20 ar
  35   19   21 1
  36   20   39 1
  37   21   40 1
  38   22   23 ar
  39   22   27 ar
  40   23   24 ar
  41   23   41 1
  42   24   25 ar
  43   24   42 1
  44   25   26 ar
  45   25   28 1
  46   26   27 ar
  47   26   43 1
  48   27   44 1

#	End of record

