#	Name: ASD01028612
#	Creating user name:	WinNT
#	Creation time:	15. 06. 2019 18:57

#	Modifying user name:	WinNT
#	Modification time:	15. 06. 2019 18:57

#	Program:	/corina/corina34_cracker 3.40 0067  02.08.2006

@<TRIPOS>MOLECULE
ASD01028612
  29   29    0    0    0
SMALL
NO_CHARGES


@<TRIPOS>ATOM
   1 C1            -0.0184     1.5028     0.0103 C.2     
   2 C2             0.0021    -0.0041     0.0020 C.3     
   3 O3             1.0197     2.1211     0.0037 O.2     
   4 O4            -1.1898     2.1580     0.0194 O.3     
   5 N5             5.3262    -1.8059    -0.1105 N.ar    
   6 C6             5.9885    -2.0314     0.9973 C.ar    
   7 C7             5.4061    -1.8359     2.2537 C.ar    
   8 C8             4.1111    -1.3979     2.3435 C.ar    
   9 C9             3.4076    -1.1583     1.1489 C.ar    
  10 C10            2.0773    -0.7087     1.1628 C.ar    
  11 C11            1.4295    -0.4870    -0.0142 C.ar    
  12 C12            2.0690    -0.7013    -1.2333 C.ar    
  13 C13            3.3573    -1.1376    -1.2837 C.ar    
  14 C14            4.0600    -1.3774    -0.0901 C.ar    
  15 O15            6.1226    -2.0803     3.3824 O.3     
  16 C16            7.4665    -2.5353     3.2119 C.3     
  17 H17           -0.4983    -0.3791     0.8948 H       
  18 H18           -0.5153    -0.3696    -0.8850 H       
  19 H19           -1.1523     3.1243     0.0245 H       
  20 H20            7.0099    -2.3773     0.9388 H       
  21 H21            3.6434    -1.2412     3.3042 H       
  22 H22            1.5710    -0.5394     2.1016 H       
  23 H23            1.5337    -0.5185    -2.1533 H       
  24 H24            3.8378    -1.2992    -2.2373 H       
  25 H25            8.0359    -1.7877     2.6596 H       
  26 H26            7.9238    -2.6916     4.1889 H       
  27 H27            7.4648    -3.4736     2.6572 H       
  28 Cl28          13.0359     8.1243     9.1889 Cl      
  29 H29           13.0359     9.4943     9.1889 H       
@<TRIPOS>BOND
   1    1    2 1
   2    1    3 2
   3    1    4 1
   4    2   11 1
   5    2   17 1
   6    2   18 1
   7    4   19 1
   8    5    6 ar
   9    5   14 ar
  10    6    7 ar
  11    6   20 1
  12    7    8 ar
  13    7   15 1
  14    8    9 ar
  15    8   21 1
  16    9   10 ar
  17    9   14 ar
  18   10   11 ar
  19   10   22 1
  20   11   12 ar
  21   12   13 ar
  22   12   23 1
  23   13   14 ar
  24   13   24 1
  25   15   16 1
  26   16   25 1
  27   16   26 1
  28   16   27 1
  29   28   29 1

#	End of record

