#	Name: ASD06610051
#	Creating user name:	WinNT
#	Creation time:	15. 06. 2019 21:07

#	Modifying user name:	WinNT
#	Modification time:	15. 06. 2019 21:07

#	Program:	/corina/corina34_cracker 3.40 0067  02.08.2006

@<TRIPOS>MOLECULE
ASD06610051
 212  211    0    0    0
SMALL
NO_CHARGES


@<TRIPOS>ATOM
   1 C1            -0.0144     1.2086     0.0087 C.2     
   2 O2             0.0021    -0.0041     0.0020 O.2     
   3 N3             2.4066     1.0431    -0.0153 N.am    
   4 C4             1.2803     1.9798     0.0005 C.3     
   5 C5             1.3375     2.8671    -1.2446 C.3     
   6 O6             1.1451     2.0642    -2.4110 O.3     
   7 C7            -3.5426     1.9694    -0.5709 C.2     
   8 O8            -3.2948     3.0926    -0.9556 O.2     
   9 N9            -1.1906     1.8666     0.0178 N.am    
  10 C10           -2.4492     1.1169     0.0197 C.3     
  11 C11           -2.8163     0.7401     1.4565 C.3     
  12 O12           -3.0819     1.9267     2.2071 O.3     
  13 C13           -7.1934     1.8552    -0.7166 C.2     
  14 O14           -7.2513     0.9284     0.0635 O.2     
  15 N15           -4.7957     1.4837    -0.6717 N.am    
  16 C16           -5.8586     2.3124    -1.2459 C.3     
  17 C17           -5.8417     2.1796    -2.7700 C.3     
  18 C18           -4.5360     2.7591    -3.3180 C.3     
  19 C19           -4.5191     2.6263    -4.8421 C.3     
  20 N20           -3.2688     3.1811    -5.3668 N.pl3   
  21 C21           -3.0275     3.1724    -6.7203 C.2     
  22 N22           -1.9151     3.6660    -7.1871 N.2     
  23 N23           -3.9595     2.6430    -7.5813 N.pl3   
  24 C24          -10.7041     2.4068    -1.5736 C.2     
  25 O25          -10.4202     2.9881    -2.5995 O.2     
  26 N26           -8.3230     2.4763    -1.1101 N.am    
  27 C27           -9.6207     2.0318    -0.5955 C.3     
  28 C28           -9.8934     2.7057     0.7507 C.3     
  29 C29           -8.8653     2.2276     1.7780 C.3     
  30 C30           -9.1340     2.8913     3.1040 C.2     
  31 O31          -10.0534     3.6672     3.2159 O.2     
  32 O32           -8.3519     2.6206     4.1608 O.3     
  33 C33          -14.3550     2.5850    -1.5307 C.2     
  34 O34          -14.4062     2.3884    -0.3350 O.2     
  35 N35          -11.9884     2.0962    -1.3083 N.am    
  36 C36          -13.0416     2.4607    -2.2592 C.3     
  37 C37          -13.1552     1.3780    -3.3342 C.3     
  38 C38          -11.8649     1.3373    -4.1554 C.3     
  39 C39          -11.9784     0.2546    -5.2305 C.3     
  40 C40          -10.6881     0.2140    -6.0516 C.3     
  41 N41          -10.7971    -0.8255    -7.0838 N.3     
  42 C42          -17.8831     2.7975    -2.4639 C.2     
  43 O43          -17.6476     2.5513    -3.6279 O.2     
  44 N44          -15.4727     2.9146    -2.2080 N.am    
  45 C45          -16.7494     3.0354    -1.4998 C.3     
  46 C46          -16.8719     4.4398    -0.9051 C.3     
  47 C47          -15.7956     4.6363     0.1644 C.3     
  48 C48          -15.9181     6.0407     0.7591 C.3     
  49 N49          -14.8876     6.2289     1.7832 N.pl3   
  50 C50          -14.8012     7.4222     2.4604 C.2     
  51 N51          -13.8843     7.5897     3.3715 N.2     
  52 N52          -15.6819     8.4390     2.1764 N.pl3   
  53 C53          -21.5012     3.3190    -2.4668 C.2     
  54 O54          -21.4682     3.9438    -1.4278 O.2     
  55 N55          -19.1585     2.8584    -2.0326 N.am    
  56 C56          -20.2605     2.6272    -2.9698 C.3     
  57 C57          -20.5255     1.1247    -3.0847 C.3     
  58 C58          -19.3101     0.4390    -3.7120 C.3     
  59 C59          -19.5750    -1.0635    -3.8269 C.3     
  60 N60          -18.4113    -1.7201    -4.4275 N.pl3   
  61 C61          -18.4183    -3.0797    -4.6316 C.2     
  62 N62          -17.3829    -3.6639    -5.1660 N.2     
  63 N63          -19.5175    -3.8231    -4.2720 N.pl3   
  64 C64          -25.0733     3.2269    -3.2380 C.2     
  65 O65          -24.9474     2.2682    -3.9701 O.2     
  66 N66          -22.6475     3.2436    -3.1716 N.am    
  67 C67          -23.8537     3.9162    -2.6826 C.3     
  68 C68          -23.8425     5.3772    -3.1367 C.3     
  69 O69          -23.9295     5.4337    -4.5620 O.3     
  70 C70          -28.6417     3.9764    -3.4988 C.2     
  71 O71          -28.4875     5.1158    -3.1130 O.2     
  72 N72          -26.3040     3.6758    -2.9210 N.am    
  73 C73          -27.4896     3.0057    -3.4609 C.3     
  74 C74          -27.8537     1.8167    -2.5694 C.3     
  75 C75          -31.6481     4.5418    -2.6563 C.2     
  76 O76          -31.2423     3.8395    -1.7607 O.2     
  77 N77          -29.8433     3.5784    -3.9616 N.am    
  78 C78          -30.9632     4.5222    -3.9985 C.3     
  79 C79          -31.9611     4.0876    -5.0739 C.3     
  80 C80          -31.3121     4.1858    -6.4305 C.2     
  81 O81          -30.1688     4.5645    -6.5272 O.2     
  82 O82          -32.0042     3.8526    -7.5313 O.3     
  83 O83          -32.7089     5.3394    -2.4557 O.3     
  84 C84            3.6058     1.4228     0.4686 C.2     
  85 O85            3.7525     2.5401     0.9171 O.2     
  86 C86           21.6351    -1.6585     4.5475 C.3     
  87 C87           20.4589    -0.6802     4.5640 C.3     
  88 C88           19.2250    -1.3560     3.9625 C.3     
  89 C89           18.0488    -0.3777     3.9790 C.3     
  90 C90           16.8149    -1.0534     3.3775 C.3     
  91 C91           15.6387    -0.0751     3.3940 C.3     
  92 C92           14.4048    -0.7509     2.7924 C.3     
  93 C93           13.2286     0.2274     2.8089 C.3     
  94 C94           11.9947    -0.4484     2.2074 C.3     
  95 C95           10.8184     0.5299     2.2239 C.3     
  96 C96            9.5846    -0.1458     1.6224 C.3     
  97 C97            8.4083     0.8325     1.6389 C.3     
  98 C98            7.1745     0.1567     1.0374 C.3     
  99 C99            5.9982     1.1350     1.0539 C.3     
 100 C100           4.7644     0.4592     0.4523 C.3     
 101 H101           2.2893     0.1495    -0.3740 H       
 102 H102           1.3381     2.6024     0.8933 H       
 103 H103           0.5528     3.6216    -1.1894 H       
 104 H104           2.3097     3.3572    -1.2972 H       
 105 H105           1.1692     2.5622    -3.2396 H       
 106 H106          -1.2037     2.8365     0.0232 H       
 107 H107          -2.3335     0.2109    -0.5752 H       
 108 H108          -3.7039     0.1075     1.4507 H       
 109 H109          -1.9875     0.1991     1.9132 H       
 110 H110          -3.3217     1.7632     3.1295 H       
 111 H111          -4.9939     0.5854    -0.3641 H       
 112 H112          -5.6959     3.3544    -0.9701 H       
 113 H113          -5.9154     1.1272    -3.0439 H       
 114 H114          -6.6863     2.7247    -3.1916 H       
 115 H115          -4.4623     3.8115    -3.0442 H       
 116 H116          -3.6914     2.2140    -2.8964 H       
 117 H117          -4.5927     1.5738    -5.1160 H       
 118 H118          -5.3636     3.1713    -5.2637 H       
 119 H119          -2.6113     3.5545    -4.7593 H       
 120 H120          -1.7449     3.6598    -8.1420 H       
 121 H121          -4.7873     2.2757    -7.2339 H       
 122 H122          -3.7892     2.6369    -8.5362 H       
 123 H123          -8.2768     3.2176    -1.7340 H       
 124 H124          -9.6082     0.9498    -0.4643 H       
 125 H125          -9.8181     3.7872     0.6376 H       
 126 H126         -10.8955     2.4450     1.0911 H       
 127 H127          -8.9407     1.1461     1.8912 H       
 128 H128          -7.8632     2.4883     1.4376 H       
 129 H129          -8.5633     3.0706     4.9902 H       
 130 H130         -12.2155     1.6313    -0.4878 H       
 131 H131         -12.7944     3.4133    -2.7276 H       
 132 H132         -13.3143     0.4098    -2.8595 H       
 133 H133         -13.9962     1.6038    -3.9899 H       
 134 H134         -11.7057     2.3055    -4.6302 H       
 135 H135         -11.0239     1.1116    -3.4998 H       
 136 H136         -12.1376    -0.7135    -4.7557 H       
 137 H137         -12.8194     0.4804    -5.8861 H       
 138 H138         -10.5289     1.1822    -6.5264 H       
 139 H139          -9.8471    -0.0118    -5.3960 H       
 140 H140         -11.6077    -0.6741    -7.6653 H       
 141 H141          -9.9566    -0.8723    -7.6402 H       
 142 H142         -15.4317     3.0718    -3.1643 H       
 143 H143         -16.7922     2.2968    -0.6993 H       
 144 H144         -16.7403     5.1809    -1.6935 H       
 145 H145         -17.8574     4.5591    -0.4551 H       
 146 H146         -15.9272     3.8952     0.9528 H       
 147 H147         -14.8101     4.5170    -0.2856 H       
 148 H148         -15.7865     6.7818    -0.0292 H       
 149 H149         -16.9036     6.1600     1.2092 H       
 150 H150         -14.2662     5.5115     1.9836 H       
 151 H151         -13.8234     8.4317     3.8493 H       
 152 H152         -16.3642     8.3144     1.4983 H       
 153 H153         -15.6210     9.2810     2.6542 H       
 154 H154         -19.3468     3.0553    -1.1016 H       
 155 H155         -19.9942     3.0251    -3.9490 H       
 156 H156         -20.7045     0.7104    -2.0925 H       
 157 H157         -21.4011     0.9571    -3.7119 H       
 158 H158         -19.1310     0.8533    -4.7041 H       
 159 H159         -18.4345     0.6065    -3.0848 H       
 160 H160         -19.7541    -1.4778    -2.8347 H       
 161 H161         -20.4506    -1.2311    -4.4540 H       
 162 H162         -17.6357    -1.1956    -4.6812 H       
 163 H163         -17.3879    -4.6231    -5.3100 H       
 164 H164         -20.2881    -3.3884    -3.8744 H       
 165 H165         -19.5225    -4.7823    -4.4160 H       
 166 H166         -22.6739     2.7439    -4.0026 H       
 167 H167         -23.8769     3.8743    -1.5937 H       
 168 H168         -24.6932     5.9000    -2.6997 H       
 169 H169         -22.9173     5.8521    -2.8101 H       
 170 H170         -23.9276     6.3316    -4.9208 H       
 171 H171         -26.4046     4.4425    -2.3355 H       
 172 H172         -27.2791     2.6520    -4.4702 H       
 173 H173         -28.0642     2.1704    -1.5601 H       
 174 H174         -28.7359     1.3182    -2.9710 H       
 175 H175         -27.0205     1.1146    -2.5419 H       
 176 H176         -29.9666     2.6672    -4.2702 H       
 177 H177         -30.5903     5.5197    -4.2307 H       
 178 H178         -32.2666     3.0575    -4.8910 H       
 179 H179         -32.8357     4.7373    -5.0417 H       
 180 H180         -31.5456     3.9319    -8.3789 H       
 181 H181         -33.1148     5.3176    -1.5783 H       
 182 H182          21.3818    -2.5412     5.1347 H       
 183 H183          21.8474    -1.9542     3.5201 H       
 184 H184          22.5141    -1.1771     4.9760 H       
 185 H185          20.2466    -0.3845     5.5914 H       
 186 H186          20.7122     0.2025     3.9769 H       
 187 H187          19.4373    -1.6516     2.9351 H       
 188 H188          18.9717    -2.2387     4.5497 H       
 189 H189          17.8365    -0.0820     5.0064 H       
 190 H190          18.3021     0.5051     3.3918 H       
 191 H191          17.0272    -1.3491     2.3500 H       
 192 H192          16.5616    -1.9361     3.9646 H       
 193 H193          15.4264     0.2206     4.4214 H       
 194 H194          15.8920     0.8076     2.8068 H       
 195 H195          14.6171    -1.0466     1.7650 H       
 196 H196          14.1515    -1.6336     3.3796 H       
 197 H197          13.0163     0.5231     3.8364 H       
 198 H198          13.4819     1.1101     2.2218 H       
 199 H199          12.2070    -0.7440     1.1800 H       
 200 H200          11.7414    -1.3311     2.7946 H       
 201 H201          10.6062     0.8256     3.2513 H       
 202 H202          11.0718     1.4127     1.6367 H       
 203 H203           9.7969    -0.4415     0.5950 H       
 204 H204           9.3313    -1.0285     2.2095 H       
 205 H205           8.1961     1.1282     2.6663 H       
 206 H206           8.6617     1.7152     1.0517 H       
 207 H207           7.3868    -0.1390     0.0099 H       
 208 H208           6.9211    -0.7260     1.6245 H       
 209 H209           5.7859     1.4307     2.0813 H       
 210 H210           6.2516     2.0177     0.4667 H       
 211 H211           4.5110    -0.4235     1.0395 H       
 212 H212           4.9766     0.1636    -0.5751 H       
@<TRIPOS>BOND
   1    1    2 2
   2    1    4 1
   3    1    9 am
   4    3   84 am
   5    3    4 1
   6    3  101 1
   7    4    5 1
   8    4  102 1
   9    5    6 1
  10    5  103 1
  11    5  104 1
  12    6  105 1
  13    7    8 2
  14    7   10 1
  15    7   15 am
  16    9   10 1
  17    9  106 1
  18   10   11 1
  19   10  107 1
  20   11   12 1
  21   11  108 1
  22   11  109 1
  23   12  110 1
  24   13   14 2
  25   13   16 1
  26   13   26 am
  27   15   16 1
  28   15  111 1
  29   16   17 1
  30   16  112 1
  31   17   18 1
  32   17  113 1
  33   17  114 1
  34   18   19 1
  35   18  115 1
  36   18  116 1
  37   19   20 1
  38   19  117 1
  39   19  118 1
  40   20   21 1
  41   20  119 1
  42   21   22 2
  43   21   23 1
  44   22  120 1
  45   23  121 1
  46   23  122 1
  47   24   25 2
  48   24   27 1
  49   24   35 am
  50   26   27 1
  51   26  123 1
  52   27   28 1
  53   27  124 1
  54   28   29 1
  55   28  125 1
  56   28  126 1
  57   29   30 1
  58   29  127 1
  59   29  128 1
  60   30   31 2
  61   30   32 1
  62   32  129 1
  63   33   34 2
  64   33   36 1
  65   33   44 am
  66   35   36 1
  67   35  130 1
  68   36   37 1
  69   36  131 1
  70   37   38 1
  71   37  132 1
  72   37  133 1
  73   38   39 1
  74   38  134 1
  75   38  135 1
  76   39   40 1
  77   39  136 1
  78   39  137 1
  79   40   41 1
  80   40  138 1
  81   40  139 1
  82   41  140 1
  83   41  141 1
  84   42   43 2
  85   42   45 1
  86   42   55 am
  87   44   45 1
  88   44  142 1
  89   45   46 1
  90   45  143 1
  91   46   47 1
  92   46  144 1
  93   46  145 1
  94   47   48 1
  95   47  146 1
  96   47  147 1
  97   48   49 1
  98   48  148 1
  99   48  149 1
 100   49   50 1
 101   49  150 1
 102   50   51 2
 103   50   52 1
 104   51  151 1
 105   52  152 1
 106   52  153 1
 107   53   54 2
 108   53   56 1
 109   53   66 am
 110   55   56 1
 111   55  154 1
 112   56   57 1
 113   56  155 1
 114   57   58 1
 115   57  156 1
 116   57  157 1
 117   58   59 1
 118   58  158 1
 119   58  159 1
 120   59   60 1
 121   59  160 1
 122   59  161 1
 123   60   61 1
 124   60  162 1
 125   61   62 2
 126   61   63 1
 127   62  163 1
 128   63  164 1
 129   63  165 1
 130   64   65 2
 131   64   67 1
 132   64   72 am
 133   66   67 1
 134   66  166 1
 135   67   68 1
 136   67  167 1
 137   68   69 1
 138   68  168 1
 139   68  169 1
 140   69  170 1
 141   70   71 2
 142   70   73 1
 143   70   77 am
 144   72   73 1
 145   72  171 1
 146   73   74 1
 147   73  172 1
 148   74  173 1
 149   74  174 1
 150   74  175 1
 151   75   76 2
 152   75   78 1
 153   75   83 1
 154   77   78 1
 155   77  176 1
 156   78   79 1
 157   78  177 1
 158   79   80 1
 159   79  178 1
 160   79  179 1
 161   80   81 2
 162   80   82 1
 163   82  180 1
 164   83  181 1
 165   84   85 2
 166   84  100 1
 167   86   87 1
 168   86  182 1
 169   86  183 1
 170   86  184 1
 171   87   88 1
 172   87  185 1
 173   87  186 1
 174   88   89 1
 175   88  187 1
 176   88  188 1
 177   89   90 1
 178   89  189 1
 179   89  190 1
 180   90   91 1
 181   90  191 1
 182   90  192 1
 183   91   92 1
 184   91  193 1
 185   91  194 1
 186   92   93 1
 187   92  195 1
 188   92  196 1
 189   93   94 1
 190   93  197 1
 191   93  198 1
 192   94   95 1
 193   94  199 1
 194   94  200 1
 195   95   96 1
 196   95  201 1
 197   95  202 1
 198   96   97 1
 199   96  203 1
 200   96  204 1
 201   97   98 1
 202   97  205 1
 203   97  206 1
 204   98   99 1
 205   98  207 1
 206   98  208 1
 207   99  100 1
 208   99  209 1
 209   99  210 1
 210  100  211 1
 211  100  212 1

#	End of record

