#	Name: ASD03731693
#	Creating user name:	WinNT
#	Creation time:	15. 06. 2019 20:46

#	Modifying user name:	WinNT
#	Modification time:	15. 06. 2019 20:46

#	Program:	/corina/corina34_cracker 3.40 0067  02.08.2006

@<TRIPOS>MOLECULE
ASD03731693
  40   41    0    0    0
SMALL
NO_CHARGES


@<TRIPOS>ATOM
   1 C1            -0.4035     1.1034    -1.9620 C.2     
   2 C2            -0.2821    -0.2744    -1.4512 C.ar    
   3 C3             0.9016    -0.9950    -1.6495 C.ar    
   4 C4             1.0105    -2.2845    -1.1690 C.ar    
   5 C5            -0.0518    -2.8665    -0.4906 C.ar    
   6 C6            -1.2312    -2.1533    -0.2917 C.ar    
   7 C7            -1.3468    -0.8633    -0.7623 C.ar    
   8 O8             0.5255     1.6156    -2.5565 O.2     
   9 N9            -1.5460     1.7933    -1.7748 N.am    
  10 S10           -1.6824     3.3408    -2.3484 S.o2    
  11 O11           -2.9845     3.7483    -1.9513 O.2     
  12 O12           -0.5254     4.0011    -1.8537 O.2     
  13 C13           -1.5927     3.1647    -4.1516 C.3     
  14 F14           -2.2618    -2.7250     0.3687 F       
  15 F15            1.9354    -0.4295    -2.3103 F       
  16 O16            0.0593    -4.1350    -0.0202 O.3     
  17 C17            1.2617    -4.7566    -0.1396 C.ar    
  18 C18            2.2122    -4.6274     0.8620 C.ar    
  19 C19            3.4378    -5.2627     0.7371 C.ar    
  20 C20            3.7109    -6.0263    -0.3893 C.ar    
  21 C21            2.7625    -6.1532    -1.3860 C.ar    
  22 C22            1.5375    -5.5259    -1.2612 C.ar    
  23 O23            4.3715    -5.1377     1.7166 O.3     
  24 C24            5.6119    -5.8198     1.5213 C.3     
  25 C25            6.5289    -5.5635     2.7190 C.3     
  26 H26            1.9232    -2.8414    -1.3213 H       
  27 H27           -2.2604    -0.3096    -0.6035 H       
  28 H28           -2.2885     1.3834    -1.3041 H       
  29 H29           -2.4092     2.5298    -4.4957 H       
  30 H30           -1.6752     4.1468    -4.6171 H       
  31 H31           -0.6399     2.7116    -4.4255 H       
  32 H32            1.9981    -4.0325     1.7375 H       
  33 H33            4.6657    -6.5215    -0.4870 H       
  34 H34            2.9772    -6.7472    -2.2620 H       
  35 H35            0.7960    -5.6305    -2.0394 H       
  36 H36            5.4273    -6.8899     1.4276 H       
  37 H37            6.0894    -5.4525     0.6130 H       
  38 H38            6.7135    -4.4933     2.8127 H       
  39 H39            6.0514    -5.9307     3.6274 H       
  40 H40            7.4751    -6.0837     2.5700 H       
@<TRIPOS>BOND
   1    1    2 1
   2    1    8 2
   3    1    9 am
   4    2    3 ar
   5    2    7 ar
   6    3    4 ar
   7    3   15 1
   8    4    5 ar
   9    4   26 1
  10    5    6 ar
  11    5   16 1
  12    6    7 ar
  13    6   14 1
  14    7   27 1
  15    9   10 am
  16    9   28 1
  17   10   11 2
  18   10   12 2
  19   10   13 1
  20   13   29 1
  21   13   30 1
  22   13   31 1
  23   16   17 1
  24   17   18 ar
  25   17   22 ar
  26   18   19 ar
  27   18   32 1
  28   19   20 ar
  29   19   23 1
  30   20   21 ar
  31   20   33 1
  32   21   22 ar
  33   21   34 1
  34   22   35 1
  35   23   24 1
  36   24   25 1
  37   24   36 1
  38   24   37 1
  39   25   38 1
  40   25   39 1
  41   25   40 1

#	End of record

