#	Name: ASD01884902
#	Creating user name:	WinNT
#	Creation time:	15. 06. 2019 19:49

#	Modifying user name:	WinNT
#	Modification time:	15. 06. 2019 19:49

#	Program:	/corina/corina34_cracker 3.40 0067  02.08.2006

@<TRIPOS>MOLECULE
ASD01884902
  50   54    0    0    0
SMALL
NO_CHARGES


@<TRIPOS>ATOM
   1 C1            -0.0164     1.3605     0.0095 C.ar    
   2 C2             0.0021    -0.0041     0.0020 C.ar    
   3 C3             1.2156    -0.7019    -0.0129 C.ar    
   4 C4             2.4186    -0.0068    -0.0207 C.ar    
   5 C5             2.4036     1.3873    -0.0135 C.ar    
   6 C6             1.1768     2.0775     0.0020 C.ar    
   7 C7             3.4482     2.4156    -0.0174 C.2     
   8 C8             2.8279     3.6057    -0.0051 C.2     
   9 N9             1.4698     3.4248     0.0067 N.pl3   
  10 C10            1.2171    -2.1835    -0.0199 C.2     
  11 C11            0.7034    -2.8754    -1.0993 C.2     
  12 C12            1.7512    -2.9029     1.0787 C.2     
  13 C13            1.7535    -4.2478     1.0722 C.2     
  14 N14            1.2427    -4.9436     0.0110 N.pl3   
  15 C15            0.7186    -4.2813    -1.0783 C.2     
  16 C16            0.1346    -2.1344    -2.2819 C.3     
  17 C17            1.1141    -6.2718    -0.2658 C.2     
  18 N18            0.5447    -6.3742    -1.4433 N.2     
  19 N19            0.3090    -5.2064    -1.9290 N.2     
  20 C20            0.5207     4.4548     0.0207 C.ar    
  21 O21            1.5036    -7.2997     0.5303 O.3     
  22 C22            0.6175     5.4920     0.9446 C.ar    
  23 C23           -0.3454     6.4879     0.9192 C.ar    
  24 C24           -1.3623     6.4202    -0.0145 C.ar    
  25 N25           -1.4260     5.4237    -0.8761 N.ar    
  26 C26           -0.5275     4.4596    -0.8903 C.ar    
  27 C27            1.2724    -8.6224     0.0415 C.3     
  28 C28            1.7733    -9.6403     1.0681 C.3     
  29 C29           -2.4133     7.4998    -0.0482 C.3     
  30 H30           -0.9600     1.8858     0.0168 H       
  31 H31           -0.9290    -0.5512     0.0080 H       
  32 H32            3.3568    -0.5416    -0.0319 H       
  33 H33            4.5149     2.2474    -0.0281 H       
  34 H34            3.3256     4.5642    -0.0044 H       
  35 H35            2.1584    -2.3687     1.9244 H       
  36 H36            2.1638    -4.7848     1.9147 H       
  37 H37            0.9244    -1.9521    -3.0106 H       
  38 H38           -0.6524    -2.7326    -2.7411 H       
  39 H39           -0.2798    -1.1827    -1.9493 H       
  40 H40            1.4230     5.5193     1.6634 H       
  41 H41           -0.3020     7.3076     1.6212 H       
  42 H42           -0.6130     3.6598    -1.6111 H       
  43 H43            0.2047    -8.7676    -0.1229 H       
  44 H44            1.8068    -8.7611    -0.8983 H       
  45 H45            2.8410    -9.4951     1.2324 H       
  46 H46            1.2389    -9.5016     2.0079 H       
  47 H47            1.5970   -10.6492     0.6952 H       
  48 H48           -2.0937     8.2971    -0.7192 H       
  49 H49           -3.3540     7.0801    -0.4046 H       
  50 H50           -2.5522     7.9030     0.9549 H       
@<TRIPOS>BOND
   1    1    2 ar
   2    1    6 ar
   3    1   30 1
   4    2    3 ar
   5    2   31 1
   6    3    4 ar
   7    3   10 1
   8    4    5 ar
   9    4   32 1
  10    5    6 ar
  11    5    7 1
  12    6    9 1
  13    7    8 2
  14    7   33 1
  15    8    9 1
  16    8   34 1
  17    9   20 1
  18   10   11 2
  19   10   12 1
  20   11   16 1
  21   11   15 1
  22   12   13 2
  23   12   35 1
  24   13   14 1
  25   13   36 1
  26   14   15 1
  27   14   17 1
  28   15   19 2
  29   16   37 1
  30   16   38 1
  31   16   39 1
  32   17   18 2
  33   17   21 1
  34   18   19 1
  35   20   22 ar
  36   20   26 ar
  37   21   27 1
  38   22   23 ar
  39   22   40 1
  40   23   24 ar
  41   23   41 1
  42   24   25 ar
  43   24   29 1
  44   25   26 ar
  45   26   42 1
  46   27   28 1
  47   27   43 1
  48   27   44 1
  49   28   45 1
  50   28   46 1
  51   28   47 1
  52   29   48 1
  53   29   49 1
  54   29   50 1

#	End of record

