#	Name: ASD03180064
#	Creating user name:	WinNT
#	Creation time:	15. 06. 2019 20:33

#	Modifying user name:	WinNT
#	Modification time:	15. 06. 2019 20:33

#	Program:	/corina/corina34_cracker 3.40 0067  02.08.2006

@<TRIPOS>MOLECULE
ASD03180064
  44   46    0    0    0
SMALL
NO_CHARGES


@<TRIPOS>ATOM
   1 C1             0.0959     1.0878    -0.2455 C.ar    
   2 C2             0.4766     0.1924    -1.2282 C.ar    
   3 C3             1.7732    -0.2868    -1.2668 C.ar    
   4 C4             2.6926     0.1277    -0.3234 C.ar    
   5 C5             2.3136     1.0271     0.6652 C.ar    
   6 C6             1.0102     1.5065     0.7010 C.ar    
   7 N7             3.2413     1.4483     1.6218 N.pl3   
   8 N8             4.8480     3.1002     2.2302 N.2     
   9 C9             5.3674     4.2880     1.9211 C.2     
  10 C10            3.9010     2.6570     1.4624 C.2     
  11 S11            3.5838     3.8275     0.1858 S.3     
  12 C12            4.8352     4.8828     0.8375 C.2     
  13 C13            6.4514     4.9088     2.7132 C.2     
  14 S14            7.2068     6.4686     2.3957 S.3     
  15 C15            8.2268     6.2621     3.7519 C.2     
  16 N16            7.9806     5.1360     4.3321 N.2     
  17 C17            7.0346     4.3839     3.8121 C.2     
  18 C18            9.2665     7.2542     4.2053 C.3     
  19 C19            6.6394     3.0495     4.3902 C.3     
  20 C20            0.5945     2.4823     1.7716 C.3     
  21 C21           -0.1350     3.6639     1.1292 C.3     
  22 C22            4.1053    -0.3954    -0.3660 C.3     
  23 C23            4.2323    -1.5979     0.5715 C.3     
  24 H24           -0.9163     1.4635    -0.2209 H       
  25 H25           -0.2405    -0.1337    -1.9671 H       
  26 H26            2.0671    -0.9863    -2.0355 H       
  27 H27            3.4236     0.8949     2.3973 H       
  28 H28            5.1255     5.8425     0.4362 H       
  29 H29            8.8180     7.9538     4.9106 H       
  30 H30           10.0867     6.7249     4.6904 H       
  31 H31            9.6470     7.8015     3.3429 H       
  32 H32            7.2435     2.2637     3.9367 H       
  33 H33            6.8032     3.0575     5.4678 H       
  34 H34            5.5855     2.8621     4.1843 H       
  35 H35           -0.0704     1.9852     2.4779 H       
  36 H36            1.4786     2.8433     2.2972 H       
  37 H37            0.4917     4.0975     0.3499 H       
  38 H38           -1.0717     3.3183     0.6919 H       
  39 H39           -0.3446     4.4175     1.8882 H       
  40 H40            4.3492    -0.7007    -1.3835 H       
  41 H41            4.7926     0.3881    -0.0471 H       
  42 H42            5.2541    -1.9762     0.5408 H       
  43 H43            3.9884    -1.2926     1.5891 H       
  44 H44            3.5449    -2.3814     0.2527 H       
@<TRIPOS>BOND
   1    1    2 ar
   2    1    6 ar
   3    1   24 1
   4    2    3 ar
   5    2   25 1
   6    3    4 ar
   7    3   26 1
   8    4    5 ar
   9    4   22 1
  10    5    6 ar
  11    5    7 1
  12    6   20 1
  13    7   10 1
  14    7   27 1
  15    8   10 2
  16    8    9 1
  17    9   12 2
  18    9   13 1
  19   10   11 1
  20   11   12 1
  21   12   28 1
  22   13   14 1
  23   13   17 2
  24   14   15 1
  25   15   16 2
  26   15   18 1
  27   16   17 1
  28   17   19 1
  29   18   29 1
  30   18   30 1
  31   18   31 1
  32   19   32 1
  33   19   33 1
  34   19   34 1
  35   20   21 1
  36   20   35 1
  37   20   36 1
  38   21   37 1
  39   21   38 1
  40   21   39 1
  41   22   23 1
  42   22   40 1
  43   22   41 1
  44   23   42 1
  45   23   43 1
  46   23   44 1

#	End of record

