#	Name: ASD05730118
#	Creating user name:	WinNT
#	Creation time:	15. 06. 2019 21:02

#	Modifying user name:	WinNT
#	Modification time:	15. 06. 2019 21:02

#	Program:	/corina/corina34_cracker 3.40 0067  02.08.2006

@<TRIPOS>MOLECULE
ASD05730118
  84   90    0    0    0
SMALL
NO_CHARGES


@<TRIPOS>ATOM
   1 N1            -0.0118     1.3947     0.0612 N.3     
   2 C2             0.0057    -0.0044     0.0405 C.ar    
   3 C3            -1.0324    -0.7031    -0.5619 C.ar    
   4 C4            -1.0149    -2.0835    -0.5827 C.ar    
   5 C5             0.0408    -2.7733    -0.0013 C.ar    
   6 C6             1.0787    -2.0748     0.6015 C.ar    
   7 C7             1.0641    -0.6942     0.6173 C.ar    
   8 N8             0.0586    -4.1737    -0.0224 N.pl3   
   9 C9             1.2583    -4.8474    -0.1422 C.ar    
  10 N10            1.2605    -6.1684    -0.0467 N.ar    
  11 C11            2.3945    -6.8510    -0.1571 C.ar    
  12 C12            3.5946    -6.1409    -0.3778 C.ar    
  13 C13            3.5394    -4.7420    -0.4714 C.ar    
  14 N14            2.3672    -4.1469    -0.3544 N.ar    
  15 N15            2.4060    -8.2195    -0.0590 N.am    
  16 C16            3.5590    -8.9066    -0.1713 C.2     
  17 C17            4.8215    -8.2008    -0.4000 C.2     
  18 C18            4.8196    -6.8352    -0.5006 C.2     
  19 C19            1.1516    -8.9405     0.1706 C.3     
  20 O20            3.5516   -10.1214    -0.0818 O.2     
  21 C21            6.0895    -8.9575    -0.5220 C.ar    
  22 C22            6.6910    -9.5028     0.6116 C.ar    
  23 C23            1.1758     1.9262     0.7444 C.3     
  24 C24            0.8852    -9.9171    -0.9883 C.3     
  25 S25            9.9661   -11.2729    -0.8952 S.o2    
  26 C26           11.2835   -10.1155    -0.7235 C.ar    
  27 O27           10.0220   -11.7489    -2.2329 O.2     
  28 O28           10.0333   -12.1282     0.2375 O.2     
  29 C29           11.8057    -9.8431     0.5272 C.ar    
  30 C30           12.8392    -8.9351     0.6619 C.ar    
  31 C31           13.3508    -8.2997    -0.4541 C.ar    
  32 C32           12.8293    -8.5727    -1.7048 C.ar    
  33 C33           11.7987    -9.4840    -1.8400 C.ar    
  34 C34           -1.2438     1.8968     0.6854 C.3     
  35 C35           -1.2607     3.4257     0.6170 C.3     
  36 N36           -0.0732     3.9572     1.3002 N.3     
  37 C37            1.1589     3.4551     0.6760 C.3     
  38 C38            0.8409   -11.3306    -0.3721 C.3     
  39 C39            0.4745   -11.0863     1.1129 C.3     
  40 C40            1.2598    -9.7947     1.4506 C.3     
  41 C41            6.6831    -9.1322    -1.7720 C.ar    
  42 C42            7.8636    -9.8382    -1.8793 C.ar    
  43 C43            8.4585   -10.3725    -0.7501 C.ar    
  44 C44            7.8718   -10.2070     0.4916 C.ar    
  45 C45            6.0361    -8.5514    -3.0029 C.3     
  46 C46           -0.0915     5.4259     1.3219 C.3     
  47 H47           -1.8537    -0.1666    -1.0138 H       
  48 H48           -1.8224    -2.6268    -1.0508 H       
  49 H49            1.8996    -2.6113     1.0540 H       
  50 H50            1.8713    -0.1510     1.0861 H       
  51 H51           -0.7717    -4.6704     0.0472 H       
  52 H52            4.4365    -4.1648    -0.6393 H       
  53 H53            5.7404    -6.2967    -0.6691 H       
  54 H54            0.3264    -8.2342     0.2608 H       
  55 H55            6.2340    -9.3739     1.5816 H       
  56 H56            1.1680     1.6087     1.7871 H       
  57 H57            2.0749     1.5502     0.2562 H       
  58 H58           -0.0697    -9.6852    -1.4600 H       
  59 H59            1.6893    -9.8545    -1.7216 H       
  60 H60           11.4059   -10.3396     1.3990 H       
  61 H61           13.2466    -8.7218     1.6391 H       
  62 H62           14.1578    -7.5897    -0.3487 H       
  63 H63           13.2288    -8.0760    -2.5766 H       
  64 H64           11.3912    -9.6973    -2.8172 H       
  65 H65           -2.1087     1.4994     0.1542 H       
  66 H66           -1.2791     1.5790     1.7274 H       
  67 H67           -1.2529     3.7431    -0.4258 H       
  68 H68           -2.1599     3.8016     1.1051 H       
  69 H69            2.0237     3.8525     1.2072 H       
  70 H70            1.1942     3.7729    -0.3661 H       
  71 H71            0.0759   -11.9353    -0.8593 H       
  72 H72            1.8158   -11.8117    -0.4504 H       
  73 H73           -0.5979   -10.9268     1.2249 H       
  74 H74            0.8098   -11.9162     1.7350 H       
  75 H75            2.3025   -10.0277     1.6668 H       
  76 H76            0.8006    -9.2785     2.2937 H       
  77 H77            8.3240    -9.9745    -2.8467 H       
  78 H78            8.3408   -10.6263     1.3695 H       
  79 H79            6.4118    -7.5417    -3.1687 H       
  80 H80            6.2732    -9.1736    -3.8659 H       
  81 H81            4.9555    -8.5189    -2.8643 H       
  82 H82           -0.9814     5.7704     1.8488 H       
  83 H83            0.7984     5.7929     1.8332 H       
  84 H84           -0.1053     5.8042     0.2997 H       
@<TRIPOS>BOND
   1    1    2 1
   2    1   23 1
   3    1   34 1
   4    2    3 ar
   5    2    7 ar
   6    3    4 ar
   7    3   47 1
   8    4    5 ar
   9    4   48 1
  10    5    6 ar
  11    5    8 1
  12    6    7 ar
  13    6   49 1
  14    7   50 1
  15    8    9 1
  16    8   51 1
  17    9   10 ar
  18    9   14 ar
  19   10   11 ar
  20   11   12 ar
  21   11   15 1
  22   12   13 ar
  23   12   18 1
  24   13   14 ar
  25   13   52 1
  26   15   16 am
  27   15   19 1
  28   16   17 1
  29   16   20 2
  30   17   18 2
  31   17   21 1
  32   18   53 1
  33   19   24 1
  34   19   40 1
  35   19   54 1
  36   21   41 ar
  37   21   22 ar
  38   22   44 ar
  39   22   55 1
  40   23   37 1
  41   23   56 1
  42   23   57 1
  43   24   38 1
  44   24   58 1
  45   24   59 1
  46   25   26 1
  47   25   27 2
  48   25   28 2
  49   25   43 1
  50   26   29 ar
  51   26   33 ar
  52   29   30 ar
  53   29   60 1
  54   30   31 ar
  55   30   61 1
  56   31   32 ar
  57   31   62 1
  58   32   33 ar
  59   32   63 1
  60   33   64 1
  61   34   35 1
  62   34   65 1
  63   34   66 1
  64   35   36 1
  65   35   67 1
  66   35   68 1
  67   36   37 1
  68   36   46 1
  69   37   69 1
  70   37   70 1
  71   38   39 1
  72   38   71 1
  73   38   72 1
  74   39   40 1
  75   39   73 1
  76   39   74 1
  77   40   75 1
  78   40   76 1
  79   41   42 ar
  80   41   45 1
  81   42   43 ar
  82   42   77 1
  83   43   44 ar
  84   44   78 1
  85   45   79 1
  86   45   80 1
  87   45   81 1
  88   46   82 1
  89   46   83 1
  90   46   84 1

#	End of record

