#	Name: ASD01903066
#	Creating user name:	WinNT
#	Creation time:	15. 06. 2019 19:54

#	Modifying user name:	WinNT
#	Modification time:	15. 06. 2019 19:54

#	Program:	/corina/corina34_cracker 3.40 0067  02.08.2006

@<TRIPOS>MOLECULE
ASD01903066
  32   34    0    0    0
SMALL
NO_CHARGES


@<TRIPOS>ATOM
   1 C1             0.0194     1.2392    -0.1276 C.2     
   2 N2            -0.0123    -0.0582    -0.1398 N.2     
   3 C3            -1.1944    -0.6321     0.0338 C.2     
   4 C4            -2.2259     0.2110     0.2029 C.2     
   5 S5            -1.6075     1.8598     0.1365 S.3     
   6 C6            -1.3666    -2.1077     0.0403 C.2     
   7 N7             1.1573     2.0154    -0.2911 N.pl3   
   8 C8            -2.3932    -2.8281    -0.5997 C.2     
   9 N9            -2.2047    -4.1000    -0.3651 N.2     
  10 N10           -1.0593    -4.2409     0.4278 N.pl3   
  11 C11           -0.5557    -3.0106     0.6624 C.2     
  12 C12            2.4063     1.4088    -0.3804 C.ar    
  13 N13            2.4931     0.0881    -0.4184 N.ar    
  14 C14            3.6576    -0.5266    -0.5028 C.ar    
  15 C15            4.8353     0.1917    -0.5544 C.ar    
  16 C16            4.7880     1.5792    -0.5171 C.ar    
  17 C17            3.5525     2.1954    -0.4346 C.ar    
  18 C18           -3.6641    -0.1848     0.4176 C.3     
  19 C19           -3.8976    -0.4727     1.9020 C.3     
  20 H20            1.0823     2.9811    -0.3432 H       
  21 H21           -3.1970    -2.4034    -1.1829 H       
  22 H22           -0.6897    -5.0779     0.7500 H       
  23 H23            0.3261    -2.7823     1.2427 H       
  24 H24            3.6898    -1.6058    -0.5315 H       
  25 H25            5.7839    -0.3201    -0.6227 H       
  26 H26            5.6952     2.1638    -0.5561 H       
  27 H27            3.4791     3.2725    -0.4036 H       
  28 H28           -4.3162     0.6280     0.0982 H       
  29 H29           -3.8857    -1.0789    -0.1651 H       
  30 H30           -3.1851    -1.2238     2.2430 H       
  31 H31           -3.7615     0.4441     2.4757 H       
  32 H32           -4.9126    -0.8434     2.0449 H       
@<TRIPOS>BOND
   1    1    2 2
   2    1    7 1
   3    1    5 1
   4    2    3 1
   5    3    4 2
   6    3    6 1
   7    4    5 1
   8    4   18 1
   9    6    8 1
  10    6   11 2
  11    7   12 1
  12    7   20 1
  13    8    9 2
  14    8   21 1
  15    9   10 1
  16   10   11 1
  17   10   22 1
  18   11   23 1
  19   12   13 ar
  20   12   17 ar
  21   13   14 ar
  22   14   15 ar
  23   14   24 1
  24   15   16 ar
  25   15   25 1
  26   16   17 ar
  27   16   26 1
  28   17   27 1
  29   18   19 1
  30   18   28 1
  31   18   29 1
  32   19   30 1
  33   19   31 1
  34   19   32 1

#	End of record

