#	Name: ASD01230008
#	Creating user name:	WinNT
#	Creation time:	15. 06. 2019 19:11

#	Modifying user name:	WinNT
#	Modification time:	15. 06. 2019 19:11

#	Program:	/corina/corina34_cracker 3.40 0067  02.08.2006

@<TRIPOS>MOLECULE
ASD01230008
  28   29    0    0    0
SMALL
NO_CHARGES


@<TRIPOS>ATOM
   1 S1            -0.0205     1.6642     0.0112 S.o2    
   2 N2             0.0021    -0.0041     0.0020 N.am    
   3 C3             1.0433    -0.6382     0.8360 C.3     
   4 N4             2.3522    -0.1712     0.3859 N.pl3   
   5 C5             2.6623     1.1726     0.1951 C.ar    
   6 C6             1.6826     2.1370    -0.0025 C.ar    
   7 C7             4.0012     1.5598     0.1985 C.ar    
   8 C8             4.3424     2.8814    -0.0014 C.ar    
   9 C9             3.3594     3.8318    -0.2066 C.ar    
  10 C10            2.0273     3.4563    -0.2063 C.ar    
  11 S11            3.8016     5.5172    -0.4685 S.o2    
  12 O12            4.8220     5.5153    -1.4575 O.2     
  13 O13            2.5831     6.2344    -0.6104 O.2     
  14 N14            4.5050     6.0622     0.9281 N.am    
  15 C15            5.7926     3.2911     0.0046 C.3     
  16 F16            6.5939     2.1666     0.2297 F       
  17 F17            6.1219     3.8586    -1.2310 F       
  18 F18            6.0083     4.2283     1.0205 F       
  19 O19           -0.5702     2.0739    -1.2335 O.2     
  20 O20           -0.5463     2.0605     1.2705 O.2     
  21 H21           -0.6294    -0.5251    -0.5183 H       
  22 H22            0.8951    -0.3608     1.8796 H       
  23 H23            0.9859    -1.7217     0.7315 H       
  24 H24            3.0410    -0.8314     0.2112 H       
  25 H25            4.7742     0.8228     0.3584 H       
  26 H26            1.2575     4.1970    -0.3651 H       
  27 H27            5.1827     6.7552     0.8915 H       
  28 H28            4.2394     5.6883     1.7829 H       
@<TRIPOS>BOND
   1    1    2 am
   2    1    6 1
   3    1   19 2
   4    1   20 2
   5    2    3 1
   6    2   21 1
   7    3    4 1
   8    3   22 1
   9    3   23 1
  10    4    5 1
  11    4   24 1
  12    5    6 ar
  13    5    7 ar
  14    6   10 ar
  15    7    8 ar
  16    7   25 1
  17    8    9 ar
  18    8   15 1
  19    9   10 ar
  20    9   11 1
  21   10   26 1
  22   11   12 2
  23   11   13 2
  24   11   14 am
  25   14   27 1
  26   14   28 1
  27   15   16 1
  28   15   17 1
  29   15   18 1

#	End of record

