#	Name: ASD00431374
#	Creating user name:	WinNT
#	Creation time:	15. 06. 2019 18:35

#	Modifying user name:	WinNT
#	Modification time:	15. 06. 2019 18:35

#	Program:	/corina/corina34_cracker 3.40 0067  02.08.2006

@<TRIPOS>MOLECULE
ASD00431374
  37   39    0    0    0
SMALL
NO_CHARGES


@<TRIPOS>ATOM
   1 C1             0.1200     1.0931     0.1571 C.3     
   2 C2            -0.0198    -0.3741     0.5676 C.3     
   3 O3             2.4946     1.2316    -0.7500 O.3     
   4 N4             3.5804     1.6708    -0.4501 N.2     
   5 C5             3.5464     2.2748     0.7152 C.2     
   6 C6             2.2017     2.1682     1.1752 C.2     
   7 C7             1.5740     1.4879     0.1910 C.2     
   8 S8             4.5999     3.7349     2.9748 S.3     
   9 C9             6.2637     4.1132     2.8709 C.2     
  10 N10            6.7602     3.6598     1.7612 N.2     
  11 C11            5.9405     3.0227     0.9541 C.2     
  12 C12            4.6731     2.9315     1.4085 C.2     
  13 O13            6.9637     4.7897     3.8124 O.3     
  14 C14            8.2571     5.1083     3.5401 C.ar    
  15 C15            8.5467     6.1554     2.6772 C.ar    
  16 C16            9.8606     6.4789     2.4006 C.ar    
  17 C17           10.8906     5.7570     2.9854 C.ar    
  18 C18           10.6011     4.7101     3.8481 C.ar    
  19 C19            9.2873     4.3901     4.1293 C.ar    
  20 O20           12.1841     6.0753     2.7126 O.3     
  21 C21           13.1937     5.2900     3.3498 C.3     
  22 N22           -0.4047     1.2732    -1.2031 N.3     
  23 H23           -0.4427     1.7193     0.8495 H       
  24 H24            0.5429    -1.0003    -0.1248 H       
  25 H25            0.3695    -0.5077     1.5769 H       
  26 H26           -1.0715    -0.6596     0.5431 H       
  27 H27            1.7819     2.5439     2.0966 H       
  28 H28            6.2549     2.6077     0.0079 H       
  29 H29            7.7447     6.7172     2.2216 H       
  30 H30           10.0860     7.2938     1.7286 H       
  31 H31           11.4032     4.1479     4.3031 H       
  32 H32            9.0620     3.5778     4.8045 H       
  33 H33           13.0926     5.3766     4.4316 H       
  34 H34           13.0809     4.2462     3.0568 H       
  35 H35           14.1776     5.6481     3.0469 H       
  36 H36            0.1414     0.7528    -1.8732 H       
  37 H37           -1.3789     1.0150    -1.2520 H       
@<TRIPOS>BOND
   1    1    2 1
   2    1    7 1
   3    1   22 1
   4    1   23 1
   5    2   24 1
   6    2   25 1
   7    2   26 1
   8    3    4 1
   9    3    7 1
  10    4    5 2
  11    5    6 1
  12    5   12 1
  13    6    7 2
  14    6   27 1
  15    8    9 1
  16    8   12 1
  17    9   10 2
  18    9   13 1
  19   10   11 1
  20   11   12 2
  21   11   28 1
  22   13   14 1
  23   14   15 ar
  24   14   19 ar
  25   15   16 ar
  26   15   29 1
  27   16   17 ar
  28   16   30 1
  29   17   18 ar
  30   17   20 1
  31   18   19 ar
  32   18   31 1
  33   19   32 1
  34   20   21 1
  35   21   33 1
  36   21   34 1
  37   21   35 1
  38   22   36 1
  39   22   37 1

#	End of record

