#	Name: ASD02770044
#	Creating user name:	WinNT
#	Creation time:	15. 06. 2019 20:26

#	Modifying user name:	WinNT
#	Modification time:	15. 06. 2019 20:26

#	Program:	/corina/corina34_cracker 3.40 0067  02.08.2006

@<TRIPOS>MOLECULE
ASD02770044
  43   44    0    0    0
SMALL
NO_CHARGES


@<TRIPOS>ATOM
   1 C1            -0.0861     1.7101    -0.1932 C.2     
   2 C2            -0.0237     0.2333    -0.1965 C.ar    
   3 C3             1.1991    -0.4162    -0.3748 C.ar    
   4 C4             1.2503    -1.7955    -0.3764 C.ar    
   5 C5             0.0922    -2.5342    -0.2016 C.ar    
   6 C6            -1.1222    -1.8961    -0.0250 C.ar    
   7 C7            -1.1861    -0.5178    -0.0157 C.ar    
   8 O8             0.9288     2.3617    -0.3459 O.2     
   9 N9            -1.2690     2.3342    -0.0264 N.am    
  10 C10           -1.3158     3.7274     0.0758 C.2     
  11 C11           -2.5092     4.3635     0.1083 C.2     
  12 C12           -2.5678     5.8026     0.4083 C.ar    
  13 C13           -3.6125     6.5841    -0.0966 C.ar    
  14 C14           -3.6605     7.9318     0.1893 C.ar    
  15 C15           -2.6786     8.5121     0.9738 C.ar    
  16 C16           -1.6420     7.7459     1.4770 C.ar    
  17 C17           -1.5826     6.3953     1.2044 C.ar    
  18 N18           -4.7647     8.7607    -0.3443 N.pl3   
  19 O19           -5.6293     8.2518    -1.0350 O.2     
  20 O20           -4.8088     9.9516    -0.0926 O.2     
  21 C21           -0.0678     4.5017     0.1479 C.2     
  22 O22            0.7302     4.2874     1.0408 O.2     
  23 N23            0.1921     5.4487    -0.7753 N.am    
  24 C24            1.3814     6.2938    -0.6430 C.3     
  25 C25            1.4404     7.2779    -1.8130 C.3     
  26 O26            0.3297     8.1739    -1.7383 O.3     
  27 Br27           2.9051    -2.6782    -0.6182 Br      
  28 H28            2.1028     0.1592    -0.5115 H       
  29 H29            0.1373    -3.6133    -0.2036 H       
  30 H30           -2.0220    -2.4780     0.1100 H       
  31 H31           -2.1344    -0.0210     0.1271 H       
  32 H32           -2.0878     1.8165     0.0227 H       
  33 H33           -3.4190     3.8149    -0.0858 H       
  34 H34           -4.3791     6.1328    -0.7091 H       
  35 H35           -2.7217     9.5686     1.1940 H       
  36 H36           -0.8795     8.2060     2.0880 H       
  37 H37           -0.7754     5.7978     1.6015 H       
  38 H38           -0.4084     5.5706    -1.5272 H       
  39 H39            1.3315     6.8470     0.2949 H       
  40 H40            2.2740     5.6683    -0.6489 H       
  41 H41            2.3694     7.8459    -1.7635 H       
  42 H42            1.4006     6.7276    -2.7530 H       
  43 H43            0.3029     8.8274    -2.4506 H       
@<TRIPOS>BOND
   1    1    2 1
   2    1    8 2
   3    1    9 am
   4    2    3 ar
   5    2    7 ar
   6    3    4 ar
   7    3   28 1
   8    4    5 ar
   9    4   27 1
  10    5    6 ar
  11    5   29 1
  12    6    7 ar
  13    6   30 1
  14    7   31 1
  15    9   10 1
  16    9   32 1
  17   10   11 2
  18   10   21 1
  19   11   12 1
  20   11   33 1
  21   12   13 ar
  22   12   17 ar
  23   13   14 ar
  24   13   34 1
  25   14   15 ar
  26   14   18 1
  27   15   16 ar
  28   15   35 1
  29   16   17 ar
  30   16   36 1
  31   17   37 1
  32   18   19 2
  33   18   20 2
  34   21   22 2
  35   21   23 am
  36   23   24 1
  37   23   38 1
  38   24   25 1
  39   24   39 1
  40   24   40 1
  41   25   26 1
  42   25   41 1
  43   25   42 1
  44   26   43 1

#	End of record

