#	Name: ASD03090183
#	Creating user name:	WinNT
#	Creation time:	15. 06. 2019 20:28

#	Modifying user name:	WinNT
#	Modification time:	15. 06. 2019 20:28

#	Program:	/corina/corina34_cracker 3.40 0067  02.08.2006

@<TRIPOS>MOLECULE
ASD03090183
  49   51    0    0    0
SMALL
NO_CHARGES


@<TRIPOS>ATOM
   1 N1            -0.2823     0.9142    -0.8089 N.ar    
   2 C2            -0.1633    -0.1772    -0.0773 C.ar    
   3 C3             1.0660    -0.7754     0.1080 C.ar    
   4 C4             2.1944    -0.2073    -0.4934 C.ar    
   5 C5             2.0218     0.9497    -1.2604 C.ar    
   6 C6             0.7553     1.4817    -1.3930 C.ar    
   7 C7             3.5338    -0.8135    -0.3224 C.2     
   8 N8             7.0470    -0.7757    -0.4219 N.pl3   
   9 C9             7.4531     0.4477    -0.9649 C.ar    
  10 C10            6.6701     1.0770    -1.9238 C.ar    
  11 C11            7.0732     2.2851    -2.4587 C.ar    
  12 C12            8.2569     2.8683    -2.0400 C.ar    
  13 C13            9.0394     2.2425    -1.0838 C.ar    
  14 C14            8.6373     1.0378    -0.5417 C.ar    
  15 N15            4.6881    -0.2201    -0.5509 N.2     
  16 C16            5.6873    -1.0642    -0.2905 C.2     
  17 N17            5.1862    -2.2109     0.1088 N.2     
  18 N18            3.7889    -2.0714     0.1013 N.pl3   
  19 C19            2.8030    -3.0899     0.4716 C.3     
  20 C20            2.5540    -3.0339     1.9801 C.3     
  21 F21            8.6496     4.0495    -2.5652 F       
  22 C22            0.5550     2.7276    -2.2169 C.3     
  23 C23            1.5244    -4.0975     2.3668 C.3     
  24 C24            1.2791    -4.0424     3.8527 C.2     
  25 O25            1.8671    -3.2357     4.5323 O.2     
  26 C26            0.3000    -4.9941     4.4906 C.3     
  27 C27           10.3276     2.8797    -0.6304 C.3     
  28 F28           10.9361     2.0671     0.3323 F       
  29 F29           11.1854     3.0275    -1.7256 F       
  30 F30           10.0571     4.1357    -0.0769 F       
  31 H31           -1.0401    -0.6080     0.3831 H       
  32 H32            1.1560    -1.6685     0.7085 H       
  33 H33            2.8669     1.4198    -1.7412 H       
  34 H34            7.7101    -1.4236    -0.1365 H       
  35 H35            5.7470     0.6221    -2.2513 H       
  36 H36            6.4646     2.7749    -3.2045 H       
  37 H37            9.2476     0.5503     0.2041 H       
  38 H38            1.8692    -2.9012    -0.0581 H       
  39 H39            3.1807    -4.0761     0.2020 H       
  40 H40            3.4878    -3.2226     2.5098 H       
  41 H41            2.1763    -2.0476     2.2497 H       
  42 H42            0.3516     2.4504    -3.2512 H       
  43 H43           -0.2876     3.2939    -1.8201 H       
  44 H44            1.4560     3.3395    -2.1751 H       
  45 H45            0.5906    -3.9088     1.8372 H       
  46 H46            1.9021    -5.0838     2.0973 H       
  47 H47            0.6236    -6.0200     4.3150 H       
  48 H48            0.2563    -4.8055     5.5633 H       
  49 H49           -0.6879    -4.8451     4.0549 H       
@<TRIPOS>BOND
   1    1    2 ar
   2    1    6 ar
   3    2    3 ar
   4    2   31 1
   5    3    4 ar
   6    3   32 1
   7    4    5 ar
   8    4    7 1
   9    5    6 ar
  10    5   33 1
  11    6   22 1
  12    7   15 2
  13    7   18 1
  14    8    9 1
  15    8   16 1
  16    8   34 1
  17    9   10 ar
  18    9   14 ar
  19   10   11 ar
  20   10   35 1
  21   11   12 ar
  22   11   36 1
  23   12   13 ar
  24   12   21 1
  25   13   14 ar
  26   13   27 1
  27   14   37 1
  28   15   16 1
  29   16   17 2
  30   17   18 1
  31   18   19 1
  32   19   20 1
  33   19   38 1
  34   19   39 1
  35   20   23 1
  36   20   40 1
  37   20   41 1
  38   22   42 1
  39   22   43 1
  40   22   44 1
  41   23   24 1
  42   23   45 1
  43   23   46 1
  44   24   25 2
  45   24   26 1
  46   26   47 1
  47   26   48 1
  48   26   49 1
  49   27   28 1
  50   27   29 1
  51   27   30 1

#	End of record

