#	Name: ASD01915932
#	Creating user name:	WinNT
#	Creation time:	15. 06. 2019 20:06

#	Modifying user name:	WinNT
#	Modification time:	15. 06. 2019 20:06

#	Program:	/corina/corina34_cracker 3.40 0067  02.08.2006

@<TRIPOS>MOLECULE
ASD01915932
  40   43    0    0    0
SMALL
NO_CHARGES


@<TRIPOS>ATOM
   1 C1            -0.0165     1.3676     0.0096 C.2     
   2 C2             0.0021    -0.0041     0.0020 C.2     
   3 C3            -1.3057    -0.7789    -0.0019 C.3     
   4 C4            -2.3695     0.0449     0.7209 C.3     
   5 N5            -2.4035     1.4320     0.2718 N.am    
   6 C6            -1.2693     2.1314     0.0352 C.2     
   7 O7            -1.2874     3.3345    -0.1473 O.2     
   8 S8             1.6349     1.9479    -0.0031 S.3     
   9 C9             2.2074     0.3355    -0.0093 C.2     
  10 N10            1.2152    -0.4964    -0.0049 N.2     
  11 O11            4.1137    -0.1826    -1.3681 O.3     
  12 C12            5.4130    -0.5364    -1.5540 C.ar    
  13 C13            5.9183    -0.6730    -2.8385 C.ar    
  14 C14            6.2363    -0.7556    -0.4594 C.ar    
  15 C15            7.5565    -1.1152    -0.6498 C.ar    
  16 C16            8.0582    -1.2562    -1.9325 C.ar    
  17 C17            7.2389    -1.0326    -3.0261 C.ar    
  18 C18            3.6614    -0.0605    -0.0180 C.3     
  19 C19           -3.6425     2.0567     0.0802 C.ar    
  20 C20           -4.2472     2.7369     1.1278 C.ar    
  21 C21           -5.4693     3.3530     0.9369 C.ar    
  22 C22           -6.0918     3.2923    -0.2982 C.ar    
  23 C23           -5.4915     2.6144    -1.3462 C.ar    
  24 C24           -4.2661     2.0012    -1.1619 C.ar    
  25 F25           -7.2870     3.8949    -0.4813 F       
  26 F26            9.3497    -1.6070    -2.1173 F       
  27 F27           -3.6801     1.3399    -2.1839 F       
  28 H28           -1.6199    -0.9598    -1.0299 H       
  29 H29           -1.1683    -1.7300     0.5126 H       
  30 H30           -3.3455    -0.4069     0.5442 H       
  31 H31           -2.1631     0.0259     1.7910 H       
  32 H32            5.2795    -0.4986    -3.6917 H       
  33 H33            5.8454    -0.6450     0.5413 H       
  34 H34            8.1977    -1.2859     0.2023 H       
  35 H35            7.6315    -1.1430    -4.0261 H       
  36 H36            4.2486     0.7015     0.4944 H       
  37 H37            3.7808    -1.0159     0.4930 H       
  38 H38           -3.7631     2.7844     2.0920 H       
  39 H39           -5.9397     3.8823     1.7524 H       
  40 H40           -5.9790     2.5680    -2.3088 H       
@<TRIPOS>BOND
   1    1    2 2
   2    1    8 1
   3    1    6 1
   4    2    3 1
   5    2   10 1
   6    3    4 1
   7    3   28 1
   8    3   29 1
   9    4    5 1
  10    4   30 1
  11    4   31 1
  12    5    6 am
  13    5   19 1
  14    6    7 2
  15    8    9 1
  16    9   10 2
  17    9   18 1
  18   11   12 1
  19   11   18 1
  20   12   13 ar
  21   12   14 ar
  22   13   17 ar
  23   13   32 1
  24   14   15 ar
  25   14   33 1
  26   15   16 ar
  27   15   34 1
  28   16   17 ar
  29   16   26 1
  30   17   35 1
  31   18   36 1
  32   18   37 1
  33   19   20 ar
  34   19   24 ar
  35   20   21 ar
  36   20   38 1
  37   21   22 ar
  38   21   39 1
  39   22   23 ar
  40   22   25 1
  41   23   24 ar
  42   23   40 1
  43   24   27 1

#	End of record

