#	Name: ASD01917839
#	Creating user name:	WinNT
#	Creation time:	15. 06. 2019 20:10

#	Modifying user name:	WinNT
#	Modification time:	15. 06. 2019 20:10

#	Program:	/corina/corina34_cracker 3.40 0067  02.08.2006

@<TRIPOS>MOLECULE
ASD01917839
  47   51    0    0    0
SMALL
NO_CHARGES


@<TRIPOS>ATOM
   1 C1            -0.0130     1.3174    -0.0069 C.2     
   2 C2            -0.0103    -0.0295     0.0026 C.2     
   3 C3            -1.2503    -0.8868     0.0233 C.3     
   4 C4            -2.4376    -0.0296     0.4794 C.3     
   5 N5            -2.4040     1.2576    -0.2310 N.am    
   6 C6            -1.2641     2.1604     0.0119 C.3     
   7 C7            -3.3897     1.6029    -1.0828 C.2     
   8 O8            -4.2646     0.8044    -1.3556 O.2     
   9 O9             1.2637     1.7217    -0.0295 O.3     
  10 C10            2.0358     0.6235    -0.0300 C.2     
  11 N11            1.2677    -0.4313    -0.0103 N.2     
  12 C12            3.5426     0.6108    -0.0507 C.3     
  13 O13            4.0003     0.5951    -1.4043 O.3     
  14 C14            5.3450     0.5822    -1.6008 C.ar    
  15 C15            5.8588     0.5665    -2.8893 C.ar    
  16 C16            7.2261     0.5534    -3.0864 C.ar    
  17 C17            8.0822     0.5559    -2.0007 C.ar    
  18 C18            7.5726     0.5710    -0.7155 C.ar    
  19 C19            6.2062     0.5904    -0.5131 C.ar    
  20 C20           -3.4069     2.9531    -1.6853 C.ar    
  21 C21           -3.8688     3.1237    -3.0020 C.ar    
  22 C22           -3.8940     4.3534    -3.5768 C.ar    
  23 C23           -3.4554     5.4782    -2.8550 C.ar    
  24 C24           -2.9876     5.3198    -1.5257 C.ar    
  25 C25           -2.9734     4.0408    -0.9465 C.ar    
  26 N26           -3.4730     6.6973    -3.4064 N.ar    
  27 C27           -3.0581     7.7325    -2.7129 C.ar    
  28 C28           -2.5973     7.5758    -1.4028 C.ar    
  29 N29           -2.5696     6.3902    -0.8398 N.ar    
  30 H30           -1.4428    -1.2747    -0.9770 H       
  31 H31           -1.1099    -1.7153     0.7176 H       
  32 H32           -3.3694    -0.5472     0.2517 H       
  33 H33           -2.3697     0.1450     1.5532 H       
  34 H34           -1.3724     2.6413     0.9842 H       
  35 H35           -1.2150     2.9153    -0.7728 H       
  36 H36            3.9203     1.5022     0.4503 H       
  37 H37            3.9056    -0.2777     0.4660 H       
  38 H38            5.1904     0.5643    -3.7377 H       
  39 H39            7.6265     0.5409    -4.0893 H       
  40 H40            9.1508     0.5456    -2.1568 H       
  41 H41            8.2435     0.5721     0.1309 H       
  42 H42            5.8087     0.6022     0.4909 H       
  43 H43           -4.2075     2.2656    -3.5636 H       
  44 H44           -4.2510     4.4681    -4.5896 H       
  45 H45           -2.6197     3.9054     0.0649 H       
  46 H46           -3.0729     8.7155    -3.1599 H       
  47 H47           -2.2597     8.4388    -0.8482 H       
@<TRIPOS>BOND
   1    1    2 2
   2    1    9 1
   3    1    6 1
   4    2    3 1
   5    2   11 1
   6    3    4 1
   7    3   30 1
   8    3   31 1
   9    4    5 1
  10    4   32 1
  11    4   33 1
  12    5    6 1
  13    5    7 am
  14    6   34 1
  15    6   35 1
  16    7    8 2
  17    7   20 1
  18    9   10 1
  19   10   11 2
  20   10   12 1
  21   12   13 1
  22   12   36 1
  23   12   37 1
  24   13   14 1
  25   14   15 ar
  26   14   19 ar
  27   15   16 ar
  28   15   38 1
  29   16   17 ar
  30   16   39 1
  31   17   18 ar
  32   17   40 1
  33   18   19 ar
  34   18   41 1
  35   19   42 1
  36   20   21 ar
  37   20   25 ar
  38   21   22 ar
  39   21   43 1
  40   22   23 ar
  41   22   44 1
  42   23   24 ar
  43   23   26 ar
  44   24   25 ar
  45   24   29 ar
  46   25   45 1
  47   26   27 ar
  48   27   28 ar
  49   27   46 1
  50   28   29 ar
  51   28   47 1

#	End of record

