#	Name: ASD00100051
#	Creating user name:	WinNT
#	Creation time:	15. 06. 2019 18:30

#	Modifying user name:	WinNT
#	Modification time:	15. 06. 2019 18:30

#	Program:	/corina/corina34_cracker 3.40 0067  02.08.2006

@<TRIPOS>MOLECULE
ASD00100051
  70   73    0    0    0
SMALL
NO_CHARGES


@<TRIPOS>ATOM
   1 C1            -0.5474     1.1979     0.7355 C.2     
   2 C2            -0.1995    -0.2522     0.5176 C.3     
   3 C3             1.3155    -0.3948     0.3586 C.3     
   4 O4             0.3299     2.0348     0.7611 O.2     
   5 N5            -1.8341     1.5653     0.8964 N.am    
   6 O6             1.6568    -1.7795     0.2686 O.3     
   7 C7             3.0475    -2.0488     0.4566 C.3     
   8 O8             1.7351     0.2775    -0.8305 O.3     
   9 C9             3.1209     0.6260    -0.8431 C.3     
  10 C10           -2.1724     2.9749     1.1082 C.3     
  11 C11           -3.6102     3.2286     0.6506 C.3     
  12 C12           -3.9634     4.7008     0.8718 C.3     
  13 C13           -3.8342     5.0384     2.3585 C.3     
  14 C14           -2.3964     4.7847     2.8160 C.3     
  15 C15           -2.0432     3.3126     2.5948 C.3     
  16 C16           -4.1875     6.5106     2.5797 C.3     
  17 C17           -4.1796     6.8173     4.0786 C.3     
  18 N18           -4.5188     8.2307     4.2910 N.3     
  19 C19           -4.7534     8.5076     5.7139 C.3     
  20 C20           -5.2443     9.9475     5.8807 C.3     
  21 C21           -4.1915    10.9084     5.3214 C.3     
  22 C22           -3.9303    10.5676     3.8516 C.3     
  23 C23           -3.4776     9.1098     3.7437 C.3     
  24 O24           -5.9284    14.1309     5.1802 O.3     
  25 C25           -5.8003    12.8305     4.8640 C.2     
  26 C26           -4.6951    12.3248     5.4281 C.2     
  27 C27           -4.0739    13.4275     6.1715 C.ar    
  28 C28           -4.9115    14.5370     5.9671 C.ar    
  29 C29           -2.9281    13.5503     6.9557 C.ar    
  30 C30           -2.6226    14.7654     7.5285 C.ar    
  31 C31           -3.4491    15.8611     7.3271 C.ar    
  32 C32           -4.5852    15.7528     6.5537 C.ar    
  33 H33           -0.5317    -0.8382     1.3745 H       
  34 H34           -0.6950    -0.6133    -0.3836 H       
  35 H35            1.8146     0.0471     1.2211 H       
  36 H36           -2.5362     0.8964     0.8719 H       
  37 H37            3.1803    -3.0924     0.7417 H       
  38 H38            3.5839    -1.8548    -0.4723 H       
  39 H39            3.4392    -1.4045     1.2437 H       
  40 H40            3.3704     1.1568     0.0757 H       
  41 H41            3.7227    -0.2800    -0.9141 H       
  42 H42            3.3266     1.2670    -1.7003 H       
  43 H43           -1.4919     3.6023     0.5326 H       
  44 H44           -3.7022     2.9881    -0.4085 H       
  45 H45           -4.2907     2.6012     1.2262 H       
  46 H46           -3.2829     5.3282     0.2962 H       
  47 H47           -4.9877     4.8816     0.5459 H       
  48 H48           -4.5147     4.4110     2.9341 H       
  49 H49           -1.7159     5.4121     2.2404 H       
  50 H50           -2.3044     5.0253     3.8752 H       
  51 H51           -2.7237     2.6851     3.1704 H       
  52 H52           -1.0189     3.1318     2.9208 H       
  53 H53           -3.4537     7.1399     2.0762 H       
  54 H54           -5.1786     6.7115     2.1729 H       
  55 H55           -4.9134     6.1879     4.5821 H       
  56 H56           -3.1885     6.6164     4.4854 H       
  57 H57           -5.5070     7.8202     6.0982 H       
  58 H58           -3.8242     8.3742     6.2679 H       
  59 H59           -6.1807    10.0778     5.3383 H       
  60 H60           -5.4034    10.1575     6.9383 H       
  61 H61           -3.2666    10.8059     5.8889 H       
  62 H62           -4.8461    10.7078     3.2773 H       
  63 H63           -3.1507    11.2208     3.4596 H       
  64 H64           -2.5543     8.9736     4.3069 H       
  65 H65           -3.3045     8.8598     2.6969 H       
  66 H66           -6.4884    12.2741     4.2450 H       
  67 H67           -2.2840    12.6980     7.1136 H       
  68 H68           -1.7361    14.8652     8.1372 H       
  69 H69           -3.2002    16.8089     7.7812 H       
  70 H70           -5.2209    16.6130     6.4039 H       
@<TRIPOS>BOND
   1    1    2 1
   2    1    4 2
   3    1    5 am
   4    2    3 1
   5    2   33 1
   6    2   34 1
   7    3    6 1
   8    3    8 1
   9    3   35 1
  10    5   10 1
  11    5   36 1
  12    6    7 1
  13    7   37 1
  14    7   38 1
  15    7   39 1
  16    8    9 1
  17    9   40 1
  18    9   41 1
  19    9   42 1
  20   10   11 1
  21   10   15 1
  22   10   43 1
  23   11   12 1
  24   11   44 1
  25   11   45 1
  26   12   13 1
  27   12   46 1
  28   12   47 1
  29   13   14 1
  30   13   16 1
  31   13   48 1
  32   14   15 1
  33   14   49 1
  34   14   50 1
  35   15   51 1
  36   15   52 1
  37   16   17 1
  38   16   53 1
  39   16   54 1
  40   17   18 1
  41   17   55 1
  42   17   56 1
  43   18   19 1
  44   18   23 1
  45   19   20 1
  46   19   57 1
  47   19   58 1
  48   20   21 1
  49   20   59 1
  50   20   60 1
  51   21   22 1
  52   21   26 1
  53   21   61 1
  54   22   23 1
  55   22   62 1
  56   22   63 1
  57   23   64 1
  58   23   65 1
  59   24   25 1
  60   24   28 1
  61   25   26 2
  62   25   66 1
  63   26   27 1
  64   27   28 ar
  65   27   29 ar
  66   28   32 ar
  67   29   30 ar
  68   29   67 1
  69   30   31 ar
  70   30   68 1
  71   31   32 ar
  72   31   69 1
  73   32   70 1

#	End of record

