#	Name: ASD05740204
#	Creating user name:	WinNT
#	Creation time:	15. 06. 2019 21:03

#	Modifying user name:	WinNT
#	Modification time:	15. 06. 2019 21:03

#	Program:	/corina/corina34_cracker 3.40 0067  02.08.2006

@<TRIPOS>MOLECULE
ASD05740204
  62   66    0    0    0
SMALL
NO_CHARGES


@<TRIPOS>ATOM
   1 C1             0.9531    -0.8272    -0.0428 C.3     
   2 N2             0.0371    -0.1448     0.8818 N.3     
   3 C3            -1.2685    -0.6288     0.7425 C.ar    
   4 C4            -2.2887    -0.1112     1.5299 C.ar    
   5 C5            -3.5769    -0.5888     1.3925 C.ar    
   6 C6            -3.8523    -1.5872     0.4674 C.ar    
   7 C7            -2.8321    -2.1052    -0.3196 C.ar    
   8 C8            -1.5451    -1.6229    -0.1870 C.ar    
   9 N9            -5.1590    -2.0720     0.3283 N.pl3   
  10 C10           -6.2334    -1.2225     0.5064 C.ar    
  11 N11           -6.0003     0.0714     0.6975 N.ar    
  12 N12           -7.4577    -1.7281     0.4747 N.ar    
  13 C13           -8.5129    -0.9414     0.6420 C.ar    
  14 C14           -8.3033     0.4392     0.8533 C.ar    
  15 C15           -6.9916     0.9266     0.8729 C.ar    
  16 N16           -9.7918    -1.4348     0.6140 N.am    
  17 C17          -10.8502    -0.6228     0.7850 C.2     
  18 C18          -10.6974     0.7620     0.9988 C.2     
  19 C19           -9.4567     1.3145     1.0386 C.2     
  20 C20          -10.0085    -2.8669     0.3943 C.3     
  21 O21          -11.9723    -1.0974     0.7538 O.2     
  22 C22            0.5015    -0.2743     2.2700 C.3     
  23 C23            1.8989     0.3370     2.3967 C.3     
  24 N24            2.8149    -0.3453     1.4722 N.3     
  25 C25            2.3505    -0.2159     0.0839 C.3     
  26 C26          -10.0273    -3.5816     1.7209 C.ar    
  27 C27            4.1855     0.1628     1.6183 C.3     
  28 C28           -8.8487    -4.0739     2.2609 C.ar    
  29 C29          -11.2197    -3.7422     2.4045 C.ar    
  30 C30           -8.8689    -4.7311     3.4830 C.ar    
  31 C31          -10.0620    -4.8941     4.1598 C.ar    
  32 C32          -11.2360    -4.3985     3.6237 C.ar    
  33 F33          -12.3680    -3.2583     1.8825 F       
  34 O34           -7.6756    -3.9134     1.5940 O.3     
  35 C35           -6.5012    -4.4459     2.2098 C.3     
  36 H36            0.9964    -1.8878     0.2048 H       
  37 H37            0.5947    -0.7064    -1.0651 H       
  38 H38           -2.0744     0.6648     2.2499 H       
  39 H39           -4.3702    -0.1862     2.0048 H       
  40 H40           -3.0462    -2.8821    -1.0386 H       
  41 H41           -0.7517    -2.0258    -0.7990 H       
  42 H42           -5.3094    -3.0044     0.1070 H       
  43 H43           -6.7944     1.9765     1.0322 H       
  44 H44          -11.5691     1.3857     1.1317 H       
  45 H45           -9.3272     2.3741     1.2021 H       
  46 H46          -10.9619    -3.0166    -0.1125 H       
  47 H47           -9.2029    -3.2660    -0.2220 H       
  48 H48           -0.1862     0.2496     2.9339 H       
  49 H49            0.5396    -1.3286     2.5439 H       
  50 H50            1.8557     1.3977     2.1491 H       
  51 H51            2.2573     0.2162     3.4190 H       
  52 H52            3.0382    -0.7398    -0.5799 H       
  53 H53            2.3124     0.8385    -0.1899 H       
  54 H54            4.5288    -0.0065     2.6389 H       
  55 H55            4.8426    -0.3591     0.9227 H       
  56 H56            4.2020     1.2309     1.4019 H       
  57 H57           -7.9519    -5.1154     3.9047 H       
  58 H58          -10.0770    -5.4056     5.1108 H       
  59 H59          -12.1677    -4.5268     4.1547 H       
  60 H60           -6.6171    -5.5214     2.3439 H       
  61 H61           -5.6372    -4.2500     1.5747 H       
  62 H62           -6.3534    -3.9726     3.1805 H       
@<TRIPOS>BOND
   1    1    2 1
   2    1   25 1
   3    1   36 1
   4    1   37 1
   5    2    3 1
   6    2   22 1
   7    3    4 ar
   8    3    8 ar
   9    4    5 ar
  10    4   38 1
  11    5    6 ar
  12    5   39 1
  13    6    7 ar
  14    6    9 1
  15    7    8 ar
  16    7   40 1
  17    8   41 1
  18    9   10 1
  19    9   42 1
  20   10   11 ar
  21   10   12 ar
  22   11   15 ar
  23   12   13 ar
  24   13   14 ar
  25   13   16 1
  26   14   15 ar
  27   14   19 1
  28   15   43 1
  29   16   17 am
  30   16   20 1
  31   17   18 1
  32   17   21 2
  33   18   19 2
  34   18   44 1
  35   19   45 1
  36   20   26 1
  37   20   46 1
  38   20   47 1
  39   22   23 1
  40   22   48 1
  41   22   49 1
  42   23   24 1
  43   23   50 1
  44   23   51 1
  45   24   25 1
  46   24   27 1
  47   25   52 1
  48   25   53 1
  49   26   29 ar
  50   26   28 ar
  51   27   54 1
  52   27   55 1
  53   27   56 1
  54   28   30 ar
  55   28   34 1
  56   29   33 1
  57   29   32 ar
  58   30   31 ar
  59   30   57 1
  60   31   32 ar
  61   31   58 1
  62   32   59 1
  63   34   35 1
  64   35   60 1
  65   35   61 1
  66   35   62 1

#	End of record

