#	Name: ASD01411036
#	Creating user name:	WinNT
#	Creation time:	15. 06. 2019 19:19

#	Modifying user name:	WinNT
#	Modification time:	15. 06. 2019 19:19

#	Program:	/corina/corina34_cracker 3.40 0067  02.08.2006

@<TRIPOS>MOLECULE
ASD01411036
  33   35    0    0    0
SMALL
NO_CHARGES


@<TRIPOS>ATOM
   1 C1            -0.3403     1.5974    -1.5603 C.2     
   2 S2            -0.3422    -0.1672    -1.3955 S.3     
   3 C3            -1.8561    -0.2213    -0.4707 C.2     
   4 C4            -2.2560     1.1867    -0.3584 C.2     
   5 N5            -1.4326     2.0478    -0.9326 N.am    
   6 O6            -3.2666     1.5356     0.2232 O.2     
   7 S7             0.8380     2.5451    -2.3631 S.2     
   8 C8            -2.4976    -1.3145     0.0201 C.2     
   9 C9            -1.8776    -2.6375    -0.0879 C.ar    
  10 C10           -1.7200     3.4837    -0.8906 C.3     
  11 C11           -0.5079    -2.7659    -0.3055 C.ar    
  12 C12            0.0749    -4.0207    -0.4071 C.ar    
  13 C13           -0.6569    -5.1642    -0.3004 C.ar    
  14 C14           -2.0441    -5.1113    -0.0805 C.ar    
  15 C15           -2.6832    -3.8533     0.0366 C.ar    
  16 C16           -2.8111    -6.2837     0.0321 C.ar    
  17 C17           -4.1530    -6.1923     0.2455 C.ar    
  18 C18           -4.7791    -4.9532     0.3537 C.ar    
  19 C19           -4.0636    -3.7962     0.2558 C.ar    
  20 C20           -1.0880     4.0868     0.3374 C.2     
  21 O21           -0.4617     3.3888     1.0993 O.2     
  22 O22           -1.2207     5.3994     0.5847 O.3     
  23 H23           -3.4643    -1.2079     0.4896 H       
  24 H24           -1.3123     3.9620    -1.7812 H       
  25 H25           -2.7985     3.6376    -0.8569 H       
  26 H26            0.1054    -1.8816    -0.3962 H       
  27 H27            1.1391    -4.0927    -0.5760 H       
  28 H28           -0.1659    -6.1223    -0.3860 H       
  29 H29           -2.3391    -7.2515    -0.0505 H       
  30 H30           -4.7405    -7.0944     0.3317 H       
  31 H31           -5.8448    -4.9077     0.5225 H       
  32 H32           -4.5609    -2.8413     0.3415 H       
  33 H33           -0.7977     5.7404     1.3846 H       
@<TRIPOS>BOND
   1    1    2 1
   2    1    7 2
   3    1    5 am
   4    2    3 1
   5    3    4 1
   6    3    8 2
   7    4    5 am
   8    4    6 2
   9    5   10 1
  10    8    9 1
  11    8   23 1
  12    9   11 ar
  13    9   15 ar
  14   10   20 1
  15   10   24 1
  16   10   25 1
  17   11   12 ar
  18   11   26 1
  19   12   13 ar
  20   12   27 1
  21   13   14 ar
  22   13   28 1
  23   14   15 ar
  24   14   16 ar
  25   15   19 ar
  26   16   17 ar
  27   16   29 1
  28   17   18 ar
  29   17   30 1
  30   18   19 ar
  31   18   31 1
  32   19   32 1
  33   20   21 2
  34   20   22 1
  35   22   33 1

#	End of record

