#	Name: ASD07030005
#	Creating user name:	WinNT
#	Creation time:	15. 06. 2019 21:08

#	Modifying user name:	WinNT
#	Modification time:	15. 06. 2019 21:08

#	Program:	/corina/corina34_cracker 3.40 0067  02.08.2006

@<TRIPOS>MOLECULE
ASD07030005
  50   53    0    0    0
SMALL
NO_CHARGES


@<TRIPOS>ATOM
   1 C1            -0.0187     1.5258     0.0104 C.3     
   2 C2             0.0021    -0.0041     0.0020 C.3     
   3 N3             1.3595     2.0342     0.0000 N.3     
   4 N4            -1.3761    -0.5125     0.0124 N.3     
   5 C5            -1.3954    -1.9814     0.0047 C.3     
   6 C6            -2.6290    -2.6748     0.5864 C.3     
   7 C7            -2.3959    -2.6699    -0.9257 C.3     
   8 C8             1.3788     3.5031     0.0077 C.3     
   9 C9             2.6233     4.1903     0.5731 C.3     
  10 C10            2.3614     4.2017    -0.9343 C.3     
  11 C11            2.4246     5.4819     1.3236 C.ar    
  12 C12            2.8152     5.5786     2.6464 C.ar    
  13 C13            2.6341     6.7615     3.3366 C.ar    
  14 C14            2.0597     7.8530     2.7014 C.ar    
  15 C15            1.6686     7.7534     1.3741 C.ar    
  16 C16            1.8571     6.5700     0.6866 C.ar    
  17 O17            1.8801     9.0176     3.3783 O.3     
  18 C18            1.2827    10.0995     2.6609 C.3     
  19 C19            1.1646    11.2982     3.5665 C.ar    
  20 C20            2.1952    12.2170     3.6348 C.ar    
  21 C21            2.0865    13.3173     4.4656 C.ar    
  22 C22            0.9462    13.4980     5.2279 C.ar    
  23 C23           -0.0836    12.5791     5.1589 C.ar    
  24 C24            0.0233    11.4820     4.3243 C.ar    
  25 Br25           3.4963    14.5741     4.5600 Br      
  26 H26           -0.5459     1.8868    -0.8726 H       
  27 H27           -0.5289     1.8773     0.9072 H       
  28 H28            0.5123    -0.3556    -0.8948 H       
  29 H29            0.5293    -0.3651     0.8851 H       
  30 H30            1.8883     1.6616     0.7744 H       
  31 H31           -1.8899    -0.1483     0.8007 H       
  32 H32           -0.4297    -2.4650     0.1524 H       
  33 H33           -2.4750    -3.6147     1.1163 H       
  34 H34           -3.4263    -2.0410     0.9748 H       
  35 H35           -3.0398    -2.0330    -1.5322 H       
  36 H36           -2.0885    -3.6067    -1.3906 H       
  37 H37            0.4162     3.9852     0.1786 H       
  38 H38            3.4278     3.5525     0.9394 H       
  39 H39            2.9936     3.5713    -1.5597 H       
  40 H40            2.0453     5.1433    -1.3831 H       
  41 H41            3.2620     4.7286     3.1406 H       
  42 H42            2.9391     6.8365     4.3699 H       
  43 H43            1.2212     8.6016     0.8774 H       
  44 H44            1.5571     6.4934    -0.3481 H       
  45 H45            1.9040    10.3528     1.8019 H       
  46 H46            0.2911     9.8043     2.3177 H       
  47 H47            3.0854    12.0753     3.0398 H       
  48 H48            0.8611    14.3570     5.8770 H       
  49 H49           -0.9737    12.7199     5.7542 H       
  50 H50           -0.7834    10.7662     4.2675 H       
@<TRIPOS>BOND
   1    1    2 1
   2    1    3 1
   3    1   26 1
   4    1   27 1
   5    2    4 1
   6    2   28 1
   7    2   29 1
   8    3    8 1
   9    3   30 1
  10    4    5 1
  11    4   31 1
  12    5    6 1
  13    5    7 1
  14    5   32 1
  15    6    7 1
  16    6   33 1
  17    6   34 1
  18    7   35 1
  19    7   36 1
  20    8    9 1
  21    8   10 1
  22    8   37 1
  23    9   10 1
  24    9   11 1
  25    9   38 1
  26   10   39 1
  27   10   40 1
  28   11   12 ar
  29   11   16 ar
  30   12   13 ar
  31   12   41 1
  32   13   14 ar
  33   13   42 1
  34   14   15 ar
  35   14   17 1
  36   15   16 ar
  37   15   43 1
  38   16   44 1
  39   17   18 1
  40   18   19 1
  41   18   45 1
  42   18   46 1
  43   19   20 ar
  44   19   24 ar
  45   20   21 ar
  46   20   47 1
  47   21   22 ar
  48   21   25 1
  49   22   23 ar
  50   22   48 1
  51   23   24 ar
  52   23   49 1
  53   24   50 1

#	End of record

