#	Name: ASD03091904
#	Creating user name:	WinNT
#	Creation time:	15. 06. 2019 20:31

#	Modifying user name:	WinNT
#	Modification time:	15. 06. 2019 20:31

#	Program:	/corina/corina34_cracker 3.40 0067  02.08.2006

@<TRIPOS>MOLECULE
ASD03091904
  61   65    0    0    0
SMALL
NO_CHARGES


@<TRIPOS>ATOM
   1 C1            -0.0170     1.3998     0.0097 C.ar    
   2 C2            -1.2283     2.0682     0.0306 C.ar    
   3 C3            -2.4087     1.3494     0.0435 C.ar    
   4 C4            -2.3914    -0.0360     0.0356 C.ar    
   5 C5            -1.1918    -0.7183     0.0148 C.ar    
   6 C6             0.0021    -0.0041     0.0020 C.ar    
   7 O7             1.1631     2.0665     0.0021 O.3     
   8 C8             2.2620     1.4580     0.6804 C.3     
   9 N9             2.4081     0.0565     0.2863 N.am    
  10 C10            1.3144    -0.6822    -0.0142 C.2     
  11 C11           -3.6892    -0.8018     0.0501 C.3     
  12 C12           -4.2052    -0.9426    -1.3588 C.ar    
  13 C13           -5.0419     0.0234    -1.8869 C.ar    
  14 C14           -3.8365    -2.0346    -2.1227 C.ar    
  15 C15           -4.3074    -2.1662    -3.4145 C.ar    
  16 C16           -5.1519    -1.2007    -3.9457 C.ar    
  17 C17           -5.5165    -0.1029    -3.1778 C.ar    
  18 O18            1.4088    -1.8630    -0.2883 O.2     
  19 C19            3.7406    -0.5484     0.2167 C.3     
  20 C20            4.0045    -1.0383    -1.2085 C.3     
  21 O21            3.9351     0.0662    -2.1124 O.3     
  22 N22           -5.6316    -1.3314    -5.2564 N.pl3   
  23 C23            3.8150    -1.7311     1.1845 C.3     
  24 C24            5.2066    -2.3628     1.1119 C.3     
  25 C25            5.4705    -2.8527    -0.3133 C.3     
  26 C26            5.3961    -1.6701    -1.2812 C.3     
  27 C27           -6.4557    -0.4681    -5.8921 C.2     
  28 C28           -6.6802    -0.9531    -7.1353 C.2     
  29 C29           -5.9706    -2.1520    -7.2647 C.2     
  30 N30           -5.3372    -2.3764    -6.1417 N.2     
  31 C31           -3.7269     2.0794     0.0669 C.3     
  32 C32           -1.2604     3.5748     0.0397 C.3     
  33 H33           -1.1800    -1.7983     0.0090 H       
  34 H34            3.1773     1.9966     0.4346 H       
  35 H35            2.0934     1.5120     1.7559 H       
  36 H36           -3.5226    -1.7910     0.4766 H       
  37 H37           -4.4213    -0.2647     0.6532 H       
  38 H38           -5.3249     0.8772    -1.2892 H       
  39 H39           -3.1792    -2.7852    -1.7091 H       
  40 H40           -4.0188    -3.0191    -4.0108 H       
  41 H41           -6.1706     0.6515    -3.5895 H       
  42 H42            4.4910     0.1931     0.4908 H       
  43 H43            3.2541    -1.7799    -1.4826 H       
  44 H44            4.0927    -0.1712    -3.0365 H       
  45 H45            3.6270    -1.3820     2.1999 H       
  46 H46            3.0646    -2.4726     0.9104 H       
  47 H47            5.9570    -1.6213     1.3860 H       
  48 H48            5.2596    -3.2053     1.8014 H       
  49 H49            6.4619    -3.3028    -0.3651 H       
  50 H50            4.7201    -3.5943    -0.5874 H       
  51 H51            5.5841    -2.0191    -2.2965 H       
  52 H52            6.1465    -0.9285    -1.0071 H       
  53 H53           -6.8617     0.4445    -5.4814 H       
  54 H54           -7.2986    -0.4957    -7.8935 H       
  55 H55           -5.9462    -2.7815    -8.1420 H       
  56 H56           -4.0596     2.2614    -0.9550 H       
  57 H57           -4.4684     1.4737     0.5879 H       
  58 H58           -3.6062     3.0309     0.5846 H       
  59 H59           -1.2825     3.9440    -0.9856 H       
  60 H60           -2.1506     3.9161     0.5681 H       
  61 H61           -0.3712     3.9541     0.5433 H       
@<TRIPOS>BOND
   1    1    6 ar
   2    1    7 1
   3    1    2 ar
   4    2    3 ar
   5    2   32 1
   6    3    4 ar
   7    3   31 1
   8    4    5 ar
   9    4   11 1
  10    5    6 ar
  11    5   33 1
  12    6   10 1
  13    7    8 1
  14    8    9 1
  15    8   34 1
  16    8   35 1
  17    9   10 am
  18    9   19 1
  19   10   18 2
  20   11   12 1
  21   11   36 1
  22   11   37 1
  23   12   14 ar
  24   12   13 ar
  25   13   17 ar
  26   13   38 1
  27   14   15 ar
  28   14   39 1
  29   15   16 ar
  30   15   40 1
  31   16   22 1
  32   16   17 ar
  33   17   41 1
  34   19   23 1
  35   19   20 1
  36   19   42 1
  37   20   21 1
  38   20   26 1
  39   20   43 1
  40   21   44 1
  41   22   27 1
  42   22   30 1
  43   23   24 1
  44   23   45 1
  45   23   46 1
  46   24   25 1
  47   24   47 1
  48   24   48 1
  49   25   26 1
  50   25   49 1
  51   25   50 1
  52   26   51 1
  53   26   52 1
  54   27   28 2
  55   27   53 1
  56   28   29 1
  57   28   54 1
  58   29   30 2
  59   29   55 1
  60   31   56 1
  61   31   57 1
  62   31   58 1
  63   32   59 1
  64   32   60 1
  65   32   61 1

#	End of record

