#	Name: ASD01180004
#	Creating user name:	WinNT
#	Creation time:	15. 06. 2019 19:06

#	Modifying user name:	WinNT
#	Modification time:	15. 06. 2019 19:06

#	Program:	/corina/corina34_cracker 3.40 0067  02.08.2006

@<TRIPOS>MOLECULE
ASD01180004
  47   49    0    0    0
SMALL
NO_CHARGES


@<TRIPOS>ATOM
   1 S1             0.5031     1.1470    -0.4377 S.o2    
   2 O2             0.7353    -0.2141    -0.7732 O.2     
   3 O3             1.5665     2.0894    -0.4220 O.2     
   4 N4            -0.3897     2.9245    -2.2160 N.ar    
   5 C5            -0.5747     1.7290    -1.7043 C.ar    
   6 C6            -1.6159     0.9140    -2.1535 C.ar    
   7 N7            -2.4315     1.3264    -3.0969 N.ar    
   8 C8            -2.2644     2.5400    -3.6339 C.ar    
   9 C9            -3.1198     3.0098    -4.6451 C.ar    
  10 C10           -2.9242     4.2500    -5.1726 C.ar    
  11 C11           -1.8833     5.0648    -4.7235 C.ar    
  12 C12           -1.0355     4.6418    -3.7453 C.ar    
  13 C13           -1.2073     3.3678    -3.1773 C.ar    
  14 C14           -1.8056    -0.4536    -1.5496 C.3     
  15 C15           -3.2701    -0.6338    -1.1450 C.3     
  16 C16           -1.4251    -1.5219    -2.5767 C.3     
  17 Cl17          -1.6663     6.6391    -5.4221 Cl      
  18 Cl18          -3.9837     4.8255    -6.4216 Cl      
  19 C19           -0.4781     1.2693     1.0831 C.3     
  20 C20            0.3456     0.7939     2.2521 C.ar    
  21 C21            1.1257     1.6905     2.9581 C.ar    
  22 C22            1.8813     1.2544     4.0303 C.ar    
  23 C23            1.8566    -0.0783     4.3968 C.ar    
  24 C24            1.0759    -0.9747     3.6913 C.ar    
  25 C25            0.3169    -0.5378     2.6218 C.ar    
  26 S26            2.8207    -0.6344     5.7627 S.o2    
  27 O27            3.0600    -2.0076     5.4868 O.2     
  28 O28            3.8926     0.2956     5.8368 O.2     
  29 C29            1.7222    -0.4549     7.1951 C.3     
  30 H30           -3.9286     2.3899    -5.0026 H       
  31 H31           -0.2343     5.2825    -3.4077 H       
  32 H32           -1.1705    -0.5533    -0.6693 H       
  33 H33           -3.9051    -0.5340    -2.0253 H       
  34 H34           -3.4073    -1.6230    -0.7082 H       
  35 H35           -3.5412     0.1273    -0.4133 H       
  36 H36           -0.3817    -1.3935    -2.8649 H       
  37 H37           -1.5623    -2.5110    -2.1399 H       
  38 H38           -2.0601    -1.4221    -3.4569 H       
  39 H39           -0.7719     2.3066     1.2436 H       
  40 H40           -1.3699     0.6493     0.9910 H       
  41 H41            1.1450     2.7317     2.6718 H       
  42 H42            2.4913     1.9548     4.5815 H       
  43 H43            1.0568    -2.0160     3.9774 H       
  44 H44           -0.2960    -1.2375     2.0729 H       
  45 H45            0.8321    -1.0669     7.0492 H       
  46 H46            2.2432    -0.7801     8.0956 H       
  47 H47            1.4311     0.5902     7.3010 H       
@<TRIPOS>BOND
   1    1    2 2
   2    1    3 2
   3    1   19 1
   4    1    5 1
   5    4    5 ar
   6    4   13 ar
   7    5    6 ar
   8    6    7 ar
   9    6   14 1
  10    7    8 ar
  11    8    9 ar
  12    8   13 ar
  13    9   10 ar
  14    9   30 1
  15   10   11 ar
  16   10   18 1
  17   11   12 ar
  18   11   17 1
  19   12   13 ar
  20   12   31 1
  21   14   15 1
  22   14   16 1
  23   14   32 1
  24   15   33 1
  25   15   34 1
  26   15   35 1
  27   16   36 1
  28   16   37 1
  29   16   38 1
  30   19   20 1
  31   19   39 1
  32   19   40 1
  33   20   21 ar
  34   20   25 ar
  35   21   22 ar
  36   21   41 1
  37   22   23 ar
  38   22   42 1
  39   23   24 ar
  40   23   26 1
  41   24   25 ar
  42   24   43 1
  43   25   44 1
  44   26   27 2
  45   26   28 2
  46   26   29 1
  47   29   45 1
  48   29   46 1
  49   29   47 1

#	End of record

