#	Name: ASD08151022
#	Creating user name:	WinNT
#	Creation time:	15. 06. 2019 21:17

#	Modifying user name:	WinNT
#	Modification time:	15. 06. 2019 21:17

#	Program:	/corina/corina34_cracker 3.40 0067  02.08.2006

@<TRIPOS>MOLECULE
ASD08151022
  35   37    0    0    0
SMALL
NO_CHARGES


@<TRIPOS>ATOM
   1 C1            -0.0187     1.5258     0.0104 C.3     
   2 C2             0.0021    -0.0041     0.0020 C.3     
   3 N3             4.1765     2.6225     2.2789 N.ar    
   4 C4             5.4068     3.0770     2.2712 C.ar    
   5 C5             6.0126     3.5299     1.1016 C.ar    
   6 C6             5.3217     3.5071    -0.0764 C.ar    
   7 C7             4.0012     3.0182    -0.0629 C.ar    
   8 C8             3.2312     2.9659    -1.2360 C.ar    
   9 C9             1.9556     2.4884    -1.1935 C.ar    
  10 C10            1.3951     2.0474    -0.0003 C.ar    
  11 C11            2.1200     2.0822     1.1776 C.ar    
  12 C12            3.4476     2.5736     1.1622 C.ar    
  13 C13            1.5123     1.6099     2.4435 C.ar    
  14 C14            2.0276     0.4877     3.0912 C.ar    
  15 C15            1.4562     0.0522     4.2717 C.ar    
  16 C16            0.3735     0.7289     4.8104 C.ar    
  17 C17           -0.1403     1.8422     4.1710 C.ar    
  18 C18            0.4265     2.2895     2.9947 C.ar    
  19 F19            1.9536    -1.0348     4.9012 F       
  20 N20           -0.7292     2.0124    -1.1797 N.3     
  21 H21           -0.5289     1.8773     0.9072 H       
  22 H22            0.5293    -0.3651     0.8851 H       
  23 H23           -1.0205    -0.3814     0.0098 H       
  24 H24            0.5123    -0.3556    -0.8948 H       
  25 H25            5.9645     3.1010     3.1958 H       
  26 H26            7.0273     3.8990     1.1262 H       
  27 H27            5.7754     3.8546    -0.9928 H       
  28 H28            3.6500     3.3043    -2.1722 H       
  29 H29            1.3708     2.4527    -2.1007 H       
  30 H30            2.8710    -0.0401     2.6710 H       
  31 H31           -0.0710     0.3853     5.7328 H       
  32 H32           -0.9845     2.3655     4.5953 H       
  33 H33            0.0266     3.1618     2.4993 H       
  34 H34           -0.8128     3.0178    -1.1650 H       
  35 H35           -0.2753     1.6996    -2.0248 H       
@<TRIPOS>BOND
   1    1    2 1
   2    1   10 1
   3    1   20 1
   4    1   21 1
   5    2   22 1
   6    2   23 1
   7    2   24 1
   8    3    4 ar
   9    3   12 ar
  10    4    5 ar
  11    4   25 1
  12    5    6 ar
  13    5   26 1
  14    6    7 ar
  15    6   27 1
  16    7    8 ar
  17    7   12 ar
  18    8    9 ar
  19    8   28 1
  20    9   10 ar
  21    9   29 1
  22   10   11 ar
  23   11   12 ar
  24   11   13 1
  25   13   14 ar
  26   13   18 ar
  27   14   15 ar
  28   14   30 1
  29   15   16 ar
  30   15   19 1
  31   16   17 ar
  32   16   31 1
  33   17   18 ar
  34   17   32 1
  35   18   33 1
  36   20   34 1
  37   20   35 1

#	End of record

