#	Name: ASD01813279
#	Creating user name:	WinNT
#	Creation time:	15. 06. 2019 19:30

#	Modifying user name:	WinNT
#	Modification time:	15. 06. 2019 19:30

#	Program:	/corina/corina34_cracker 3.40 0067  02.08.2006

@<TRIPOS>MOLECULE
ASD01813279
  56   59    0    0    0
SMALL
NO_CHARGES


@<TRIPOS>ATOM
   1 C1             1.7586     3.2539    -7.1405 C.3     
   2 O2             1.8974     3.0614    -5.7314 O.3     
   3 C3             2.0444     1.7829    -5.2948 C.ar    
   4 C4             2.0607     0.7356    -6.2046 C.ar    
   5 C5             2.2107    -0.5632    -5.7584 C.ar    
   6 C6             2.3442    -0.8198    -4.4063 C.ar    
   7 C7             2.5073    -2.2376    -3.9222 C.3     
   8 N8             3.9331    -2.5503    -3.7981 N.pl3   
   9 C9             4.9402    -1.7366    -4.1931 C.2     
  10 C10            6.1418    -2.3299    -3.9347 C.2     
  11 C11            7.4735    -1.7751    -4.2133 C.2     
  12 O12            8.4698    -2.4135    -3.9303 O.2     
  13 N13            7.5914    -0.5592    -4.7825 N.am    
  14 C14            8.9192    -0.0061    -5.0603 C.3     
  15 H15            9.6120    -0.3132    -4.2768 H       
  16 C16            9.4152    -0.5247    -6.4116 C.3     
  17 C17           10.8019     0.0529    -6.7018 C.3     
  18 C18           10.7203     1.5803    -6.7405 C.3     
  19 C19           10.2244     2.0989    -5.3892 C.3     
  20 C20            8.8376     1.5213    -5.0990 C.3     
  21 H21            8.1449     1.8284    -5.8825 H       
  22 O22            8.3744     2.0056    -3.8370 O.3     
  23 C23            5.8418    -3.6360    -3.3207 C.ar    
  24 N24            6.5930    -4.6313    -2.8679 N.ar    
  25 C25            6.0558    -5.7174    -2.3530 C.ar    
  26 C26            4.6811    -5.8649    -2.2632 C.ar    
  27 C27            3.8531    -4.8554    -2.7215 C.ar    
  28 C28            2.3542    -4.9869    -2.6368 C.3     
  29 C29            4.4401    -3.7126    -3.2570 C.ar    
  30 C30            2.3288     0.2223    -3.4976 C.ar    
  31 C31            2.1843     1.5232    -3.9392 C.ar    
  32 H32            2.6437     2.8710    -7.6485 H       
  33 H33            0.8768     2.7202    -7.4950 H       
  34 H34            1.6494     4.3174    -7.3530 H       
  35 H35            1.9557     0.9355    -7.2607 H       
  36 H36            2.2234    -1.3788    -6.4662 H       
  37 H37            2.0253    -2.3475    -2.9508 H       
  38 H38            2.0463    -2.9204    -4.6359 H       
  39 H39            4.8120    -0.7642    -4.6452 H       
  40 H40            6.7971    -0.0502    -5.0082 H       
  41 H41            9.4733    -1.6128    -6.3841 H       
  42 H42            8.7224    -0.2176    -7.1951 H       
  43 H43           11.4947    -0.2542    -5.9183 H       
  44 H44           11.1553    -0.3165    -7.6645 H       
  45 H45           11.7083     1.9918    -6.9472 H       
  46 H46           10.0276     1.8874    -7.5240 H       
  47 H47           10.9171     1.7918    -4.6057 H       
  48 H48           10.1662     3.1870    -5.4168 H       
  49 H49            8.2982     2.9684    -3.7891 H       
  50 H50            6.6984    -6.5080    -1.9945 H       
  51 H51            4.2580    -6.7631    -1.8382 H       
  52 H52            1.9978    -4.5028    -1.7275 H       
  53 H53            1.8980    -4.5108    -3.5047 H       
  54 H54            2.0827    -6.0424    -2.6168 H       
  55 H55            2.4336     0.0193    -2.4421 H       
  56 H56            2.1761     2.3372    -3.2294 H       
@<TRIPOS>BOND
   1    1    2 1
   2    1   32 1
   3    1   33 1
   4    1   34 1
   5    2    3 1
   6    3   31 ar
   7    3    4 ar
   8    4    5 ar
   9    4   35 1
  10    5    6 ar
  11    5   36 1
  12    6    7 1
  13    6   30 ar
  14    7    8 1
  15    7   37 1
  16    7   38 1
  17    8   29 1
  18    8    9 1
  19    9   10 2
  20    9   39 1
  21   10   11 1
  22   10   23 1
  23   11   12 2
  24   11   13 am
  25   13   14 1
  26   13   40 1
  27   14   15 1
  28   14   20 1
  29   14   16 1
  30   16   17 1
  31   16   41 1
  32   16   42 1
  33   17   18 1
  34   17   43 1
  35   17   44 1
  36   18   19 1
  37   18   45 1
  38   18   46 1
  39   19   20 1
  40   19   47 1
  41   19   48 1
  42   20   21 1
  43   20   22 1
  44   22   49 1
  45   23   29 ar
  46   23   24 ar
  47   24   25 ar
  48   25   26 ar
  49   25   50 1
  50   26   27 ar
  51   26   51 1
  52   27   28 1
  53   27   29 ar
  54   28   52 1
  55   28   53 1
  56   28   54 1
  57   30   31 ar
  58   30   55 1
  59   31   56 1

#	End of record

