#	Name: ASD02508459
#	Creating user name:	WinNT
#	Creation time:	15. 06. 2019 20:24

#	Modifying user name:	WinNT
#	Modification time:	15. 06. 2019 20:24

#	Program:	/corina/corina34_cracker 3.40 0067  02.08.2006

@<TRIPOS>MOLECULE
ASD02508459
  35   38    0    0    0
SMALL
NO_CHARGES


@<TRIPOS>ATOM
   1 N1            -0.0168     1.3313     0.0811 N.2     
   2 C2             0.0027    -0.0008    -0.0782 C.2     
   3 C3             1.2868    -0.3996    -0.1348 C.2     
   4 N4             2.0589     0.7278    -0.0054 N.pl3   
   5 C5             1.2073     1.7800     0.1263 C.2     
   6 C6             3.4524     0.7837    -0.0079 C.ar    
   7 N7             4.0653     1.5669    -0.8808 N.ar    
   8 N8             4.1291     0.0563     0.8661 N.ar    
   9 C9             5.4513     0.0857     0.8912 C.ar    
  10 C10            6.1265     0.8910    -0.0128 C.ar    
  11 C11            5.3855     1.6436    -0.9105 C.ar    
  12 S12            1.8657    -2.0516    -0.3357 S.o2    
  13 N13            1.8634    -2.3778    -1.9593 N.am    
  14 C14            2.7171    -1.6736    -2.8155 C.ar    
  15 C15            4.0441    -1.4719    -2.4611 C.ar    
  16 C16            4.8886    -0.7764    -3.3062 C.ar    
  17 C17            4.4136    -0.2785    -4.5080 C.ar    
  18 C18            3.0825    -0.4792    -4.8665 C.ar    
  19 C19            2.2386    -1.1814    -4.0225 C.ar    
  20 O20            3.2271    -2.0521     0.0717 O.2     
  21 O21            0.8805    -2.8953     0.2445 O.2     
  22 O22            5.0304     0.4290    -5.5009 O.3     
  23 C23            4.1729     0.3047    -6.6508 C.3     
  24 O24            2.8656     0.1021    -6.0825 O.3     
  25 H25           -0.8631    -0.6426    -0.1486 H       
  26 H26            1.4960     2.8136     0.2475 H       
  27 H27            5.9979    -0.5100     1.6072 H       
  28 H28            7.2056     0.9342    -0.0148 H       
  29 H29            5.8801     2.2815    -1.6281 H       
  30 H30            1.2702    -3.0570    -2.3167 H       
  31 H31            4.4170    -1.8584    -1.5241 H       
  32 H32            5.9206    -0.6207    -3.0284 H       
  33 H33            1.2064    -1.3381    -4.2987 H       
  34 H34            4.1947     1.2181    -7.2453 H       
  35 H35            4.4650    -0.5540    -7.2553 H       
@<TRIPOS>BOND
   1    1    2 1
   2    1    5 2
   3    2    3 2
   4    2   25 1
   5    3    4 1
   6    3   12 1
   7    4    5 1
   8    4    6 1
   9    5   26 1
  10    6    7 ar
  11    6    8 ar
  12    7   11 ar
  13    8    9 ar
  14    9   10 ar
  15    9   27 1
  16   10   11 ar
  17   10   28 1
  18   11   29 1
  19   12   13 am
  20   12   20 2
  21   12   21 2
  22   13   14 1
  23   13   30 1
  24   14   15 ar
  25   14   19 ar
  26   15   16 ar
  27   15   31 1
  28   16   17 ar
  29   16   32 1
  30   17   18 ar
  31   17   22 1
  32   18   19 ar
  33   18   24 1
  34   19   33 1
  35   22   23 1
  36   23   24 1
  37   23   34 1
  38   23   35 1

#	End of record

