#	Name: ASD09530020
#	Creating user name:	WinNT
#	Creation time:	15. 06. 2019 21:22

#	Modifying user name:	WinNT
#	Modification time:	15. 06. 2019 21:22

#	Program:	/corina/corina34_cracker 3.40 0067  02.08.2006

@<TRIPOS>MOLECULE
ASD09530020
  55   58    0    0    0
SMALL
NO_CHARGES


@<TRIPOS>ATOM
   1 C1            -0.0168     1.3903     0.0097 C.ar    
   2 C2             0.0021    -0.0041     0.0020 C.ar    
   3 C3             1.2222    -0.6792    -0.0133 C.ar    
   4 C4             2.4027     0.0351    -0.0207 C.ar    
   5 C5             2.3776     1.4183    -0.0126 C.ar    
   6 C6             1.1703     2.0937     0.0021 C.ar    
   7 C7            -1.2690    -0.7652     0.0106 C.ar    
   8 C8             3.6705     2.1925    -0.0203 C.3     
   9 C9             4.0882     2.4586    -1.4435 C.2     
  10 N10            5.2227     3.1407    -1.6966 N.am    
  11 O11            3.4034     2.0590    -2.3613 O.2     
  12 C12           -2.2550    -0.4712     0.9369 C.ar    
  13 C13           -3.4511    -1.1801     0.9525 C.ar    
  14 C14           -3.6877    -2.1822     0.0593 C.ar    
  15 C15           -2.7143    -2.5116    -0.8959 C.ar    
  16 C16           -1.4913    -1.7955    -0.9302 C.ar    
  17 C17            5.6288     3.3995    -3.0802 C.3     
  18 C18            6.5052     4.6246    -3.1258 C.ar    
  19 N19            7.1837     4.9793    -2.0521 N.ar    
  20 C20            7.9631     6.0423    -2.0431 C.ar    
  21 C21            8.0966     6.8318    -3.1762 C.ar    
  22 C22            7.3950     6.4865    -4.3266 C.ar    
  23 C23            6.5914     5.3580    -4.2940 C.ar    
  24 O24            8.9011     7.9272    -3.1622 O.3     
  25 C25            9.5863     8.2133    -1.9413 C.3     
  26 C26            6.4061     2.1960    -3.6171 C.3     
  27 C27           -2.9108    -3.5371    -1.8387 C.ar    
  28 N28           -1.9475    -3.7854    -2.7031 N.ar    
  29 C29           -0.8160    -3.0963    -2.6986 C.ar    
  30 N30           -0.5781    -2.1258    -1.8483 N.ar    
  31 C31           10.4367     9.4730    -2.1168 C.3     
  32 F32            9.6099    10.5509    -2.4511 F       
  33 F33           11.1076     9.7531    -0.9215 F       
  34 F34           11.3701     9.2670    -3.1383 F       
  35 H35           -0.9588     1.9187     0.0170 H       
  36 H36            1.2431    -1.7590    -0.0189 H       
  37 H37            3.3483    -0.4866    -0.0325 H       
  38 H38            1.1569     3.1736     0.0084 H       
  39 H39            3.5299     3.1397     0.5003 H       
  40 H40            4.4442     1.6126     0.4831 H       
  41 H41            5.7704     3.4603    -0.9626 H       
  42 H42           -2.0931     0.3180     1.6562 H       
  43 H43           -4.2052    -0.9327     1.6850 H       
  44 H44           -4.6227    -2.7220     0.0872 H       
  45 H45            4.7431     3.5632    -3.6942 H       
  46 H46            8.5030     6.3016    -1.1444 H       
  47 H47            7.4780     7.0809    -5.2245 H       
  48 H48            6.0324     5.0600    -5.1687 H       
  49 H49            8.8590     8.3738    -1.1454 H       
  50 H50           10.2305     7.3735    -1.6808 H       
  51 H51            7.2918     2.0322    -3.0031 H       
  52 H52            5.7722     1.3099    -3.5841 H       
  53 H53            6.7082     2.3885    -4.6466 H       
  54 H54           -3.8281    -4.1070    -1.8534 H       
  55 H55           -0.0590    -3.3407    -3.4291 H       
@<TRIPOS>BOND
   1    1    2 ar
   2    1    6 ar
   3    1   35 1
   4    2    3 ar
   5    2    7 1
   6    3    4 ar
   7    3   36 1
   8    4    5 ar
   9    4   37 1
  10    5    6 ar
  11    5    8 1
  12    6   38 1
  13    7   12 ar
  14    7   16 ar
  15    8    9 1
  16    8   39 1
  17    8   40 1
  18    9   10 am
  19    9   11 2
  20   10   17 1
  21   10   41 1
  22   12   13 ar
  23   12   42 1
  24   13   14 ar
  25   13   43 1
  26   14   15 ar
  27   14   44 1
  28   15   16 ar
  29   15   27 ar
  30   16   30 ar
  31   17   18 1
  32   17   26 1
  33   17   45 1
  34   18   19 ar
  35   18   23 ar
  36   19   20 ar
  37   20   21 ar
  38   20   46 1
  39   21   22 ar
  40   21   24 1
  41   22   23 ar
  42   22   47 1
  43   23   48 1
  44   24   25 1
  45   25   31 1
  46   25   49 1
  47   25   50 1
  48   26   51 1
  49   26   52 1
  50   26   53 1
  51   27   28 ar
  52   27   54 1
  53   28   29 ar
  54   29   30 ar
  55   29   55 1
  56   31   32 1
  57   31   33 1
  58   31   34 1

#	End of record

