#	Name: ASD03330617
#	Creating user name:	WinNT
#	Creation time:	15. 06. 2019 20:37

#	Modifying user name:	WinNT
#	Modification time:	15. 06. 2019 20:37

#	Program:	/corina/corina34_cracker 3.40 0067  02.08.2006

@<TRIPOS>MOLECULE
ASD03330617
  67   69    0    0    0
SMALL
NO_CHARGES


@<TRIPOS>ATOM
   1 C1            -0.3225     1.1710     0.8533 C.2     
   2 N2            -0.3519    -0.1678     1.0875 N.pl3   
   3 C3             0.9829     1.5566     0.8973 C.2     
   4 N4             1.7296     0.4566     1.1382 N.2     
   5 C5             0.9373    -0.5838     1.2480 C.2     
   6 C6             1.3700    -1.9752     1.5043 C.ar    
   7 C7             1.4902     2.9279     0.7144 C.2     
   8 O8             0.7144     3.8400     0.5014 O.2     
   9 C9             3.3185     4.5348     0.6013 C.3     
  10 N10            2.8140     3.1714     0.7831 N.am    
  11 C11            3.4925     4.8193    -0.8919 C.3     
  12 C12            2.1243     4.8048    -1.5766 C.3     
  13 C13            4.1411     6.1925    -1.0772 C.3     
  14 C14            4.3860     3.7449    -1.5150 C.3     
  15 C15            4.6474     4.6757     1.2977 C.2     
  16 N16            5.1846     5.8978     1.4836 N.am    
  17 O17            5.2336     3.6895     1.6910 O.2     
  18 C18            6.5091     6.0304     2.0954 C.3     
  19 C19           -1.5621    -0.9908     1.1638 C.3     
  20 C20           -2.4703    -0.6599    -0.0246 C.3     
  21 C21           -3.3809     0.5106     0.3324 C.3     
  22 N22           -2.7026     1.4529     1.2245 N.3     
  23 C23           -1.5203     2.0431     0.5793 C.3     
  24 C24           -3.6260     2.4973     1.6875 C.3     
  25 C25            2.6204    -2.4067     1.0715 C.ar    
  26 C26            3.0218    -3.7191     1.3162 C.ar    
  27 C27            2.1655    -4.5931     1.9948 C.ar    
  28 C28            0.9233    -4.1552     2.4212 C.ar    
  29 C29            0.5260    -2.8556     2.1859 C.ar    
  30 C30            4.3470    -4.1857     0.8600 C.2     
  31 N31            5.1701    -3.3422     0.2062 N.am    
  32 O32            4.6953    -5.3305     1.0744 O.2     
  33 F33            2.5511    -5.8657     2.2338 F       
  34 C34            6.4844    -3.8049    -0.2462 C.3     
  35 H35            2.6086     5.2445     1.0261 H       
  36 H36            3.4328     2.4440     0.9530 H       
  37 H37            1.4877     5.5702    -1.1327 H       
  38 H38            2.2483     5.0075    -2.6404 H       
  39 H39            1.6622     3.8265    -1.4446 H       
  40 H40            5.1003     6.2140    -0.5601 H       
  41 H41            4.2968     6.3804    -2.1396 H       
  42 H42            3.4882     6.9614    -0.6641 H       
  43 H43            3.9239     2.7666    -1.3830 H       
  44 H44            4.5099     3.9476    -2.5788 H       
  45 H45            5.3607     3.7552    -1.0272 H       
  46 H46            4.6942     6.6895     1.2122 H       
  47 H47            7.2456     5.5092     1.4839 H       
  48 H48            6.7741     7.0856     2.1629 H       
  49 H49            6.4930     5.5952     3.0946 H       
  50 H50           -1.2882    -2.0453     1.1306 H       
  51 H51           -2.0884    -0.7792     2.0946 H       
  52 H52           -1.8577    -0.3930    -0.8857 H       
  53 H53           -3.0785    -1.5307    -0.2694 H       
  54 H54           -3.6717     1.0291    -0.5812 H       
  55 H55           -4.2749     0.1304     0.8268 H       
  56 H56           -1.3449     3.0405     0.9824 H       
  57 H57           -1.6860     2.1073    -0.4961 H       
  58 H58           -4.4530     2.0374     2.2285 H       
  59 H59           -3.0965     3.1836     2.3483 H       
  60 H60           -4.0138     3.0460     0.8292 H       
  61 H61            3.2770    -1.7276     0.5479 H       
  62 H62            0.2646    -4.8327     2.9440 H       
  63 H63           -0.4442    -2.5201     2.5215 H       
  64 H64            4.8923    -2.4287     0.0351 H       
  65 H65            7.0703    -4.1313     0.6130 H       
  66 H66            6.3581    -4.6382    -0.9374 H       
  67 H67            7.0028    -2.9896    -0.7509 H       
@<TRIPOS>BOND
   1    1    2 1
   2    1    3 2
   3    1   23 1
   4    2   19 1
   5    2    5 1
   6    3    4 1
   7    3    7 1
   8    4    5 2
   9    5    6 1
  10    6   25 ar
  11    6   29 ar
  12    7    8 2
  13    7   10 am
  14    9   10 1
  15    9   11 1
  16    9   15 1
  17    9   35 1
  18   10   36 1
  19   11   12 1
  20   11   13 1
  21   11   14 1
  22   12   37 1
  23   12   38 1
  24   12   39 1
  25   13   40 1
  26   13   41 1
  27   13   42 1
  28   14   43 1
  29   14   44 1
  30   14   45 1
  31   15   16 am
  32   15   17 2
  33   16   18 1
  34   16   46 1
  35   18   47 1
  36   18   48 1
  37   18   49 1
  38   19   20 1
  39   19   50 1
  40   19   51 1
  41   20   21 1
  42   20   52 1
  43   20   53 1
  44   21   22 1
  45   21   54 1
  46   21   55 1
  47   22   23 1
  48   22   24 1
  49   23   56 1
  50   23   57 1
  51   24   58 1
  52   24   59 1
  53   24   60 1
  54   25   26 ar
  55   25   61 1
  56   26   27 ar
  57   26   30 1
  58   27   28 ar
  59   27   33 1
  60   28   29 ar
  61   28   62 1
  62   29   63 1
  63   30   31 am
  64   30   32 2
  65   31   34 1
  66   31   64 1
  67   34   65 1
  68   34   66 1
  69   34   67 1

#	End of record

