#	Name: ASD06620037
#	Creating user name:	WinNT
#	Creation time:	15. 06. 2019 21:07

#	Modifying user name:	WinNT
#	Modification time:	15. 06. 2019 21:07

#	Program:	/corina/corina34_cracker 3.40 0067  02.08.2006

@<TRIPOS>MOLECULE
ASD06620037
  55   59    0    0    0
SMALL
NO_CHARGES


@<TRIPOS>ATOM
   1 C1            -0.1453     0.8098     0.5012 C.ar    
   2 C2            -0.3746    -0.5539     0.4472 C.ar    
   3 C3             0.7190    -1.4249     0.3739 C.ar    
   4 C4             1.9984    -0.8841     0.3582 C.ar    
   5 C5             2.1414     0.4879     0.4153 C.ar    
   6 N6             1.0877     1.2807     0.4839 N.ar    
   7 C7            -1.1369    -2.6377     0.3774 C.2     
   8 N8            -1.5177    -1.3473     0.4473 N.am    
   9 N9             0.2074    -2.7122     0.3320 N.am    
  10 O10           -1.8925    -3.5912     0.3588 O.2     
  11 C11           -2.8987    -0.8626     0.5126 C.3     
  12 C12           -4.3664    -1.3306    -2.7661 C.2     
  13 C13           -4.9586    -1.9494    -3.8851 C.2     
  14 N14           -5.2532    -1.2332    -4.9434 N.2     
  15 C15           -5.0039     0.0778    -4.9869 C.2     
  16 C16           -4.4375     0.7181    -3.9421 C.2     
  17 N17           -4.1112     0.0185    -2.8141 N.pl3   
  18 N18           -3.9626    -1.7810    -1.5894 N.2     
  19 C19           -3.4641    -0.7673    -0.8810 C.2     
  20 C20           -3.5462     0.3616    -1.6251 C.2     
  21 C21           -3.0932     1.7390    -1.2142 C.3     
  22 C22            0.9950    -3.9449     0.2513 C.3     
  23 C23            0.8403    -4.9577     1.3876 C.3     
  24 C24            0.2376    -5.2527     0.0126 C.3     
  25 C25           -4.2961     2.5452    -0.7202 C.3     
  26 C26           -3.8679     3.9901    -0.4560 C.3     
  27 C27           -3.3610     4.6176    -1.7561 C.3     
  28 C28           -5.0644     4.7897     0.0636 C.3     
  29 C29           -2.7501     4.0079     0.5886 C.3     
  30 H30           -0.9802     1.4929     0.5535 H       
  31 H31            2.8656    -1.5253     0.3026 H       
  32 H32            3.1313     0.9197     0.4041 H       
  33 H33           -3.4994    -1.5554     1.1019 H       
  34 H34           -2.9164     0.1219     0.9801 H       
  35 H35           -5.1686    -3.0087    -3.8713 H       
  36 H36           -5.2594     0.6364    -5.8752 H       
  37 H37           -4.2435     1.7791    -3.9970 H       
  38 H38           -2.3580     1.6559    -0.4138 H       
  39 H39           -2.6439     2.2439    -2.0693 H       
  40 H40            1.9810    -3.8440    -0.2022 H       
  41 H41            1.7245    -5.5234     1.6814 H       
  42 H42            0.1526    -4.7069     2.1952 H       
  43 H43           -0.8466    -5.1960    -0.0844 H       
  44 H44            0.7253    -6.0125    -0.5982 H       
  45 H45           -5.0791     2.5311    -1.4784 H       
  46 H46           -4.6751     2.1042     0.2018 H       
  47 H47           -4.1573     4.6049    -2.5003 H       
  48 H48           -3.0559     5.6469    -1.5679 H       
  49 H49           -2.5086     4.0479    -2.1263 H       
  50 H50           -5.4255     4.3427     0.9898 H       
  51 H51           -4.7593     5.8191     0.2518 H       
  52 H52           -5.8607     4.7770    -0.6806 H       
  53 H53           -1.8549     3.5474     0.1707 H       
  54 H54           -2.5315     5.0382     0.8693 H       
  55 H55           -3.0677     3.4508     1.4700 H       
@<TRIPOS>BOND
   1    1    2 ar
   2    1    6 ar
   3    1   30 1
   4    2    3 ar
   5    2    8 1
   6    3    4 ar
   7    3    9 1
   8    4    5 ar
   9    4   31 1
  10    5    6 ar
  11    5   32 1
  12    7    8 am
  13    7    9 am
  14    7   10 2
  15    8   11 1
  16    9   22 1
  17   11   19 1
  18   11   33 1
  19   11   34 1
  20   12   13 1
  21   12   17 1
  22   12   18 2
  23   13   14 2
  24   13   35 1
  25   14   15 1
  26   15   16 2
  27   15   36 1
  28   16   17 1
  29   16   37 1
  30   17   20 1
  31   18   19 1
  32   19   20 2
  33   20   21 1
  34   21   25 1
  35   21   38 1
  36   21   39 1
  37   22   23 1
  38   22   24 1
  39   22   40 1
  40   23   24 1
  41   23   41 1
  42   23   42 1
  43   24   43 1
  44   24   44 1
  45   25   26 1
  46   25   45 1
  47   25   46 1
  48   26   27 1
  49   26   28 1
  50   26   29 1
  51   27   47 1
  52   27   48 1
  53   27   49 1
  54   28   50 1
  55   28   51 1
  56   28   52 1
  57   29   53 1
  58   29   54 1
  59   29   55 1

#	End of record

