#	Name: ASD03241011
#	Creating user name:	WinNT
#	Creation time:	15. 06. 2019 20:35

#	Modifying user name:	WinNT
#	Modification time:	15. 06. 2019 20:35

#	Program:	/corina/corina34_cracker 3.40 0067  02.08.2006

@<TRIPOS>MOLECULE
ASD03241011
  53   58    0    0    0
SMALL
NO_CHARGES


@<TRIPOS>ATOM
   1 C1            -0.0188     1.5336     0.0105 C.3     
   2 C2             1.0503     0.4566     0.2597 C.3     
   3 C3             1.8255     1.0646    -0.9210 C.3     
   4 C4             1.0977     2.3848    -0.6170 C.3     
   5 C5            -1.0570     1.1230    -0.9488 C.1     
   6 N6            -1.8583     0.8061    -1.6891 N.1     
   7 C7            -0.5886     2.1226     1.2751 C.ar    
   8 C8            -0.5736     3.4930     1.4645 C.ar    
   9 C9            -1.0942     4.0384     2.6200 C.ar    
  10 C10           -1.6363     3.2050     3.5984 C.ar    
  11 C11           -1.6485     1.8241     3.4017 C.ar    
  12 C12           -1.1296     1.2912     2.2395 C.ar    
  13 N13           -1.5003     6.5320     7.0255 N.pl3   
  14 C14           -2.0016     7.0823     8.1740 C.2     
  15 N15           -3.0712     6.5652     8.8042 N.2     
  16 C16           -3.6951     5.5062     8.3567 C.2     
  17 C17           -3.2167     4.8637     7.1344 C.ar    
  18 C18           -3.8413     3.7283     6.6072 C.ar    
  19 C19           -3.3200     3.1812     5.4396 C.ar    
  20 C20           -2.1962     3.7839     4.8412 C.ar    
  21 N21           -1.6310     4.8586     5.3700 N.ar    
  22 C22           -2.0943     5.4113     6.4776 C.ar    
  23 C23           -1.2053     8.1796     8.4724 C.2     
  24 C24           -0.2283     8.2730     7.4892 C.2     
  25 N25           -0.3946     7.2951     6.6312 N.2     
  26 C26           -3.9384     1.9778     4.8332 C.ar    
  27 C27           -4.1994     0.8550     5.6170 C.ar    
  28 C28           -4.7756    -0.2621     5.0472 C.ar    
  29 C29           -5.0941    -0.2690     3.7011 C.ar    
  30 C30           -4.8370     0.8422     2.9183 C.ar    
  31 C31           -4.2664     1.9670     3.4784 C.ar    
  32 C32            0.8505     9.3232     7.4227 C.3     
  33 H33            1.5605     0.5612     1.2172 H       
  34 H34            0.6988    -0.5585     0.0749 H       
  35 H35            2.9022     1.1121    -0.7583 H       
  36 H36            1.5609     0.6324    -1.8860 H       
  37 H37            0.7846     2.9263    -1.5096 H       
  38 H38            1.6209     3.0165     0.1008 H       
  39 H39           -0.1533     4.1372     0.7063 H       
  40 H40           -1.0817     5.1083     2.7668 H       
  41 H41           -2.0665     1.1737     4.1558 H       
  42 H42           -1.1421     0.2225     2.0842 H       
  43 H43           -4.5516     5.1119     8.8834 H       
  44 H44           -4.7017     3.2906     7.0915 H       
  45 H45           -1.3243     8.8421     9.3170 H       
  46 H46           -3.9508     0.8591     6.6680 H       
  47 H47           -4.9779    -1.1328     5.6534 H       
  48 H48           -5.5449    -1.1454     3.2595 H       
  49 H49           -5.0871     0.8309     1.8677 H       
  50 H50           -4.0702     2.8356     2.8673 H       
  51 H51            1.7298     8.9757     7.9650 H       
  52 H52            1.1149     9.5069     6.3813 H       
  53 H53            0.4869    10.2465     7.8736 H       
@<TRIPOS>BOND
   1    1    2 1
   2    1    4 1
   3    1    5 1
   4    1    7 1
   5    2    3 1
   6    2   33 1
   7    2   34 1
   8    3    4 1
   9    3   35 1
  10    3   36 1
  11    4   37 1
  12    4   38 1
  13    5    6 3
  14    7    8 ar
  15    7   12 ar
  16    8    9 ar
  17    8   39 1
  18    9   10 ar
  19    9   40 1
  20   10   11 ar
  21   10   20 1
  22   11   12 ar
  23   11   41 1
  24   12   42 1
  25   13   14 1
  26   13   22 1
  27   13   25 1
  28   14   15 1
  29   14   23 2
  30   15   16 2
  31   16   17 1
  32   16   43 1
  33   17   18 ar
  34   17   22 ar
  35   18   19 ar
  36   18   44 1
  37   19   20 ar
  38   19   26 1
  39   20   21 ar
  40   21   22 ar
  41   23   24 1
  42   23   45 1
  43   24   25 2
  44   24   32 1
  45   26   27 ar
  46   26   31 ar
  47   27   28 ar
  48   27   46 1
  49   28   29 ar
  50   28   47 1
  51   29   30 ar
  52   29   48 1
  53   30   31 ar
  54   30   49 1
  55   31   50 1
  56   32   51 1
  57   32   52 1
  58   32   53 1

#	End of record

