#	Name: ASD01883232
#	Creating user name:	WinNT
#	Creation time:	15. 06. 2019 19:46

#	Modifying user name:	WinNT
#	Modification time:	15. 06. 2019 19:46

#	Program:	/corina/corina34_cracker 3.40 0067  02.08.2006

@<TRIPOS>MOLECULE
ASD01883232
  44   45    0    0    0
SMALL
NO_CHARGES


@<TRIPOS>ATOM
   1 N1            -0.0162     1.3417     0.0094 N.am    
   2 C2             0.0021    -0.0041     0.0020 C.2     
   3 C3            -1.2159    -0.7274     0.0102 C.2     
   4 C4            -2.4262    -0.0109     0.0261 C.2     
   5 C5            -2.3786     1.3974     0.0332 C.2     
   6 C6            -1.1851     2.0327     0.0299 C.2     
   7 O7             1.0657    -0.6000    -0.0122 O.2     
   8 C8            -1.2149    -2.1593     0.0021 C.1     
   9 N9            -1.2142    -3.2953    -0.0044 N.1     
  10 C10            1.2513     2.0763     0.0013 C.3     
  11 C11            1.6788     2.3398    -1.4440 C.3     
  12 C12            3.0025     3.1070    -1.4525 C.3     
  13 C13            3.4930     3.2617    -2.8935 C.3     
  14 C14            2.7940     4.4905    -0.8334 C.3     
  15 C15           -3.7215    -0.7207     0.0347 C.ar    
  16 C16           -4.5704    -0.6152     1.1398 C.ar    
  17 C17           -5.7770    -1.2779     1.1448 C.ar    
  18 C18           -6.1515    -2.0529     0.0510 C.ar    
  19 C19           -5.3080    -2.1603    -1.0509 C.ar    
  20 C20           -4.1031    -1.4946    -1.0647 C.ar    
  21 N21           -7.3720    -2.7222     0.0593 N.pl3   
  22 C22           -7.7677    -3.5383    -1.0912 C.3     
  23 C23           -9.0889    -4.1359    -0.8377 C.1     
  24 N24          -10.1085    -4.5970    -0.6421 N.1     
  25 H25           -3.2949     1.9689     0.0450 H       
  26 H26           -1.1610     3.1124     0.0354 H       
  27 H27            1.1243     3.0257     0.5214 H       
  28 H28            2.0168     1.4857     0.5046 H       
  29 H29            1.8057     1.3903    -1.9642 H       
  30 H30            0.9133     2.9303    -1.9474 H       
  31 H31            3.7445     2.5577    -0.8731 H       
  32 H32            2.7510     3.8109    -3.4729 H       
  33 H33            4.4361     3.8082    -2.8995 H       
  34 H34            3.6415     2.2760    -3.3345 H       
  35 H35            2.4446     4.3803     0.1931 H       
  36 H36            3.7371     5.0371    -0.8395 H       
  37 H37            2.0520     5.0398    -1.4129 H       
  38 H38           -4.2801    -0.0146     1.9891 H       
  39 H39           -6.4335    -1.1968     1.9985 H       
  40 H40           -5.6012    -2.7627    -1.8980 H       
  41 H41           -3.4492    -1.5781    -1.9201 H       
  42 H42           -7.9605    -2.6483     0.8268 H       
  43 H43           -7.8172    -2.9114    -1.9815 H       
  44 H44           -7.0343    -4.3299    -1.2446 H       
@<TRIPOS>BOND
   1    1    2 am
   2    1   10 1
   3    1    6 1
   4    2    3 1
   5    2    7 2
   6    3    4 2
   7    3    8 1
   8    4    5 1
   9    4   15 1
  10    5    6 2
  11    5   25 1
  12    6   26 1
  13    8    9 3
  14   10   11 1
  15   10   27 1
  16   10   28 1
  17   11   12 1
  18   11   29 1
  19   11   30 1
  20   12   13 1
  21   12   14 1
  22   12   31 1
  23   13   32 1
  24   13   33 1
  25   13   34 1
  26   14   35 1
  27   14   36 1
  28   14   37 1
  29   15   16 ar
  30   15   20 ar
  31   16   17 ar
  32   16   38 1
  33   17   18 ar
  34   17   39 1
  35   18   19 ar
  36   18   21 1
  37   19   20 ar
  38   19   40 1
  39   20   41 1
  40   21   22 1
  41   21   42 1
  42   22   23 1
  43   22   43 1
  44   22   44 1
  45   23   24 3

#	End of record

