#	Name: ASD03910047
#	Creating user name:	WinNT
#	Creation time:	15. 06. 2019 20:47

#	Modifying user name:	WinNT
#	Modification time:	15. 06. 2019 20:47

#	Program:	/corina/corina34_cracker 3.40 0067  02.08.2006

@<TRIPOS>MOLECULE
ASD03910047
  72   74    0    0    0
SMALL
NO_CHARGES


@<TRIPOS>ATOM
   1 C1           -14.2071     9.4803    -3.2310 C.ar    
   2 C2           -14.4358     9.2797    -1.8821 C.ar    
   3 C3           -13.5020     9.6946    -0.9503 C.ar    
   4 C4           -12.3378    10.3113    -1.3646 C.ar    
   5 C5           -12.1051    10.5142    -2.7186 C.ar    
   6 C6           -13.0420    10.0908    -3.6522 C.ar    
   7 N7           -10.9266    11.1387    -3.1416 N.am    
   8 C8            -9.7738    10.9231    -2.4774 C.2     
   9 O9            -9.7746    10.2631    -1.4598 O.2     
  10 C10           -7.3529    11.1175    -2.0804 C.ar    
  11 C11           -6.6496     9.9482    -2.3038 C.ar    
  12 C12           -5.6087     9.5963    -1.4665 C.ar    
  13 C13           -5.2692    10.4172    -0.4009 C.ar    
  14 C14           -5.9765    11.5899    -0.1789 C.ar    
  15 C15           -7.0166    11.9373    -1.0191 C.ar    
  16 O16           -4.2459    10.0730     0.4245 O.3     
  17 C17           -4.0334    10.8967     1.5727 C.3     
  18 C18           -3.7368    12.3067     1.1314 C.2     
  19 C19          -15.2274     9.0265    -4.2430 C.3     
  20 C20          -13.7553     9.4741     0.5188 C.3     
  21 O21           -3.7100    12.5795    -0.0501 O.2     
  22 N22           -3.5012    13.2648     2.0496 N.am    
  23 C23           -8.4840    11.5021    -2.9991 C.3     
  24 C24           -5.2900    10.8891     2.4455 C.3     
  25 C25           -2.8503    10.3546     2.3773 C.3     
  26 C26           -3.2128    14.6355     1.6206 C.3     
  27 C27           -1.7428    14.7680     1.3165 C.2     
  28 O28           -1.0110    13.8152     1.4450 O.2     
  29 O29           -1.2464    15.9446     0.9030 O.3     
  30 C30           -3.5924    15.6100     2.7375 C.3     
  31 S31           -5.3620    15.4505     3.1035 S.3     
  32 C32           -5.6156    16.6635     4.4282 C.3     
  33 C33           -7.0624    16.6519     4.8497 C.ar    
  34 C34           -7.4813    15.8060     5.8596 C.ar    
  35 C35           -8.8084    15.7953     6.2463 C.ar    
  36 C36           -9.7165    16.6309     5.6233 C.ar    
  37 C37           -9.2975    17.4774     4.6141 C.ar    
  38 C38           -7.9695    17.4912     4.2304 C.ar    
  39 H39          -15.3457     8.7984    -1.5555 H       
  40 H40          -11.6092    10.6357    -0.6364 H       
  41 H41          -12.8639    10.2468    -4.7059 H       
  42 H42          -10.9392    11.7267    -3.9129 H       
  43 H43           -6.9145     9.3093    -3.1332 H       
  44 H44           -5.0598     8.6827    -1.6411 H       
  45 H45           -5.7144    12.2304     0.6501 H       
  46 H46           -7.5675    12.8501    -0.8468 H       
  47 H47          -15.9373     9.8323    -4.4296 H       
  48 H48          -14.7242     8.7630    -5.1733 H       
  49 H49          -15.7587     8.1561    -3.8582 H       
  50 H50          -13.3525     8.5057     0.8156 H       
  51 H51          -13.2684    10.2618     1.0937 H       
  52 H52          -14.8283     9.4952     0.7097 H       
  53 H53           -3.5226    13.0466     2.9945 H       
  54 H54           -8.2889    11.1128    -3.9983 H       
  55 H55           -8.5642    12.5883    -3.0415 H       
  56 H56           -5.4249     9.8984     2.8796 H       
  57 H57           -5.1825    11.6238     3.2434 H       
  58 H58           -6.1577    11.1396     1.8353 H       
  59 H59           -1.9733    10.2875     1.7335 H       
  60 H60           -2.6393    11.0255     3.2100 H       
  61 H61           -3.0954     9.3644     2.7616 H       
  62 H62           -3.7911    14.8654     0.7257 H       
  63 H63           -0.2975    15.9808     0.7202 H       
  64 H64           -3.0141    15.3801     3.6323 H       
  65 H65           -3.3779    16.6299     2.4183 H       
  66 H66           -4.9866    16.4073     5.2808 H       
  67 H67           -5.3504    17.6571     4.0667 H       
  68 H68           -6.7717    15.1532     6.3463 H       
  69 H69           -9.1358    15.1340     7.0348 H       
  70 H70          -10.7535    16.6220     5.9249 H       
  71 H71          -10.0070    18.1300     4.1272 H       
  72 H72           -7.6421    18.1526     3.4419 H       
@<TRIPOS>BOND
   1    1    2 ar
   2    1   19 1
   3    1    6 ar
   4    2    3 ar
   5    2   39 1
   6    3    4 ar
   7    3   20 1
   8    4    5 ar
   9    4   40 1
  10    5    6 ar
  11    5    7 1
  12    6   41 1
  13    7    8 am
  14    7   42 1
  15    8    9 2
  16    8   23 1
  17   10   11 ar
  18   10   15 ar
  19   10   23 1
  20   11   12 ar
  21   11   43 1
  22   12   13 ar
  23   12   44 1
  24   13   14 ar
  25   13   16 1
  26   14   15 ar
  27   14   45 1
  28   15   46 1
  29   16   17 1
  30   17   18 1
  31   17   24 1
  32   17   25 1
  33   18   21 2
  34   18   22 am
  35   19   47 1
  36   19   48 1
  37   19   49 1
  38   20   50 1
  39   20   51 1
  40   20   52 1
  41   22   26 1
  42   22   53 1
  43   23   54 1
  44   23   55 1
  45   24   56 1
  46   24   57 1
  47   24   58 1
  48   25   59 1
  49   25   60 1
  50   25   61 1
  51   26   27 1
  52   26   30 1
  53   26   62 1
  54   27   28 2
  55   27   29 1
  56   29   63 1
  57   30   31 1
  58   30   64 1
  59   30   65 1
  60   31   32 1
  61   32   33 1
  62   32   66 1
  63   32   67 1
  64   33   34 ar
  65   33   38 ar
  66   34   35 ar
  67   34   68 1
  68   35   36 ar
  69   35   69 1
  70   36   37 ar
  71   36   70 1
  72   37   38 ar
  73   37   71 1
  74   38   72 1

#	End of record

