#	Name: ASD02198256
#	Creating user name:	WinNT
#	Creation time:	15. 06. 2019 20:19

#	Modifying user name:	WinNT
#	Modification time:	15. 06. 2019 20:19

#	Program:	/corina/corina34_cracker 3.40 0067  02.08.2006

@<TRIPOS>MOLECULE
ASD02198256
  49   52    0    0    0
SMALL
NO_CHARGES


@<TRIPOS>ATOM
   1 C1            -0.0166     1.3751     0.0096 C.2     
   2 C2             0.0021    -0.0041     0.0020 C.2     
   3 C3            -1.2150    -0.8200     0.0085 C.2     
   4 S4             1.5680     2.0040    -0.0022 S.3     
   5 C5             2.2766     0.3971    -0.0175 C.2     
   6 C6             1.2850    -0.5514    -0.0132 C.2     
   7 C7             3.6611     0.1221    -0.0330 C.2     
   8 C8             4.6301     1.2274    -0.0366 C.2     
   9 O9             4.0536    -1.0335    -0.0433 O.2     
  10 N10            1.5331    -1.9155    -0.0224 N.pl3   
  11 N11           -1.1589     2.1394     0.0193 N.pl3   
  12 C12           -1.0620     3.6012     0.0268 C.3     
  13 C13           -2.3375     4.2170    -0.5746 C.3     
  14 C14            5.9933     1.1055    -0.0509 C.2     
  15 O15           -1.7299    -1.1532    -1.0429 O.2     
  16 N16            6.6295     2.2467    -0.0514 N.2     
  17 C17            5.9098     3.3324    -0.0386 C.2     
  18 S18            4.2446     2.9467    -0.0309 S.3     
  19 C19            6.4565     4.7056    -0.0366 C.ar    
  20 N20            5.6339     5.7522    -0.0225 N.ar    
  21 C21            7.8378     4.9100    -0.0438 C.ar    
  22 N22            8.3202     6.1386    -0.0420 N.ar    
  23 C23            7.4981     7.1738    -0.0335 C.ar    
  24 C24            6.1267     6.9759    -0.0208 C.ar    
  25 C25           -2.9714     5.0856     0.5316 C.3     
  26 C26           -1.7878     5.4295     1.4695 C.3     
  27 C27           -0.9654     4.1170     1.4775 C.3     
  28 N28           -1.7643    -1.2015     1.1786 N.am    
  29 C29            6.6978    -0.2266    -0.0644 C.3     
  30 H30            2.4464    -2.2422    -0.0329 H       
  31 H31            0.7935    -2.5430    -0.0184 H       
  32 H32           -2.0291     1.7110     0.0212 H       
  33 H33           -0.1891     3.9202    -0.5426 H       
  34 H34           -2.0834     4.8356    -1.4354 H       
  35 H35           -3.0285     3.4283    -0.8720 H       
  36 H36            8.5099     4.0646    -0.0504 H       
  37 H37            7.8968     8.1774    -0.0320 H       
  38 H38            5.4598     7.8254    -0.0142 H       
  39 H39           -3.3975     5.9941     0.1061 H       
  40 H40           -3.7332     4.5216     1.0698 H       
  41 H41           -1.1990     6.2518     1.0629 H       
  42 H42           -2.1453     5.6674     2.4714 H       
  43 H43           -1.4032     3.3966     2.1684 H       
  44 H44            0.0725     4.3188     1.7422 H       
  45 H45           -1.3540    -0.9360     2.0164 H       
  46 H46           -2.5700    -1.7417     1.1829 H       
  47 H47            6.8573    -0.5429    -1.0953 H       
  48 H48            7.6595    -0.1341     0.4402 H       
  49 H49            6.0861    -0.9663     0.4521 H       
@<TRIPOS>BOND
   1    1    2 2
   2    1    4 1
   3    1   11 1
   4    2    3 1
   5    2    6 1
   6    3   15 2
   7    3   28 am
   8    4    5 1
   9    5    6 2
  10    5    7 1
  11    6   10 1
  12    7    8 1
  13    7    9 2
  14    8   14 2
  15    8   18 1
  16   10   30 1
  17   10   31 1
  18   11   12 1
  19   11   32 1
  20   12   13 1
  21   12   27 1
  22   12   33 1
  23   13   25 1
  24   13   34 1
  25   13   35 1
  26   14   16 1
  27   14   29 1
  28   16   17 2
  29   17   18 1
  30   17   19 1
  31   19   20 ar
  32   19   21 ar
  33   20   24 ar
  34   21   22 ar
  35   21   36 1
  36   22   23 ar
  37   23   24 ar
  38   23   37 1
  39   24   38 1
  40   25   26 1
  41   25   39 1
  42   25   40 1
  43   26   27 1
  44   26   41 1
  45   26   42 1
  46   27   43 1
  47   27   44 1
  48   28   45 1
  49   28   46 1
  50   29   47 1
  51   29   48 1
  52   29   49 1

#	End of record

