#	Name: ASD03740013
#	Creating user name:	WinNT
#	Creation time:	15. 06. 2019 20:46

#	Modifying user name:	WinNT
#	Modification time:	15. 06. 2019 20:46

#	Program:	/corina/corina34_cracker 3.40 0067  02.08.2006

@<TRIPOS>MOLECULE
ASD03740013
  37   39    0    0    0
SMALL
NO_CHARGES


@<TRIPOS>ATOM
   1 C1            -0.0167     1.3781     0.0096 C.ar    
   2 C2             0.0021    -0.0041     0.0020 C.ar    
   3 C3            -1.1855    -0.7115     0.0095 C.ar    
   4 C4            -2.3919    -0.0367     0.0251 C.ar    
   5 C5            -2.4106     1.3455     0.0336 C.ar    
   6 C6            -1.2230     2.0529     0.0305 C.ar    
   7 S7             1.4971     2.2798     0.0000 S.o2    
   8 N8             1.9031     2.5392    -1.5844 N.am    
   9 O9             1.2076     3.5559     0.5541 O.2     
  10 O10            2.4865     1.4086     0.5303 O.2     
  11 C11            1.5372     3.6078    -2.3384 C.2     
  12 C12            2.0745     3.4392    -3.5777 C.2     
  13 C13            2.7876     2.2325    -3.5753 C.2     
  14 N14            2.6897     1.6982    -2.3818 N.2     
  15 N15            0.7545     4.6801    -1.9203 N.pl3   
  16 O16            3.4690     1.7082    -4.6288 O.3     
  17 C17            4.0944     0.5319    -4.4284 C.2     
  18 C18            4.8538    -0.0971    -5.5274 C.ar    
  19 O19            4.0335    -0.0113    -3.3434 O.2     
  20 C20            5.5036    -1.3170    -5.3232 C.ar    
  21 C21            6.2115    -1.8993    -6.3562 C.ar    
  22 C22            6.2776    -1.2776    -7.5897 C.ar    
  23 C23            5.6360    -0.0689    -7.7983 C.ar    
  24 C24            4.9211     0.5217    -6.7778 C.ar    
  25 Br25           5.4146    -2.1681    -3.6369 Br      
  26 H26            0.9446    -0.5313    -0.0101 H       
  27 H27           -1.1709    -1.7913     0.0029 H       
  28 H28           -3.3198    -0.5893     0.0302 H       
  29 H29           -3.3531     1.8728     0.0454 H       
  30 H30           -1.2376     3.1328     0.0372 H       
  31 H31            1.9695     4.1146    -4.4139 H       
  32 H32            0.4165     4.7085    -1.0115 H       
  33 H33            0.5472     5.3990    -2.5375 H       
  34 H34            6.7148    -2.8421    -6.2003 H       
  35 H35            6.8329    -1.7371    -8.3940 H       
  36 H36            5.6924     0.4110    -8.7642 H       
  37 H37            4.4209     1.4646    -6.9426 H       
@<TRIPOS>BOND
   1    1    2 ar
   2    1    7 1
   3    1    6 ar
   4    2    3 ar
   5    2   26 1
   6    3    4 ar
   7    3   27 1
   8    4    5 ar
   9    4   28 1
  10    5    6 ar
  11    5   29 1
  12    6   30 1
  13    7    8 am
  14    7    9 2
  15    7   10 2
  16    8   11 1
  17    8   14 1
  18   11   12 2
  19   11   15 1
  20   12   13 1
  21   12   31 1
  22   13   14 2
  23   13   16 1
  24   15   32 1
  25   15   33 1
  26   16   17 1
  27   17   18 1
  28   17   19 2
  29   18   20 ar
  30   18   24 ar
  31   20   21 ar
  32   20   25 1
  33   21   22 ar
  34   21   34 1
  35   22   23 ar
  36   22   35 1
  37   23   24 ar
  38   23   36 1
  39   24   37 1

#	End of record

