#	Name: ASD05430336
#	Creating user name:	WinNT
#	Creation time:	15. 06. 2019 21:00

#	Modifying user name:	WinNT
#	Modification time:	15. 06. 2019 21:00

#	Program:	/corina/corina34_cracker 3.40 0067  02.08.2006

@<TRIPOS>MOLECULE
ASD05430336
  57   61    0    0    0
SMALL
NO_CHARGES


@<TRIPOS>ATOM
   1 C1            -0.0677     1.2250    -0.3058 C.ar    
   2 C2            -0.0155    -0.0176     0.3252 C.ar    
   3 C3            -1.1681    -0.5762     0.8631 C.ar    
   4 C4            -2.3683     0.0945     0.7753 C.ar    
   5 C5            -2.4282     1.3412     0.1438 C.ar    
   6 C6            -1.2670     1.9061    -0.3925 C.ar    
   7 C7            -4.8853    -0.1353    -0.2223 C.3     
   8 C8            -4.8620     1.3700    -0.0451 C.2     
   9 C9            -3.7095     2.0592     0.0491 C.2     
  10 C10           -6.0667    -0.5309    -1.1094 C.3     
  11 O11           -7.3027    -0.0814    -0.5380 O.3     
  12 N12           -7.3247     1.3187    -0.3302 N.pl3   
  13 C13           -6.1836     2.0377     0.0176 C.2     
  14 C14           -8.4367     2.2618    -0.4401 C.3     
  15 C15           -7.8923     3.5025     0.3068 C.3     
  16 N16           -6.4431     3.2490     0.3849 N.2     
  17 C17           -8.7226     2.5877    -1.8834 C.ar    
  18 C18           -9.6856     1.7138     0.2534 C.3     
  19 C19           -9.7416     3.4649    -2.2047 C.ar    
  20 C20           -7.9619     2.0136    -2.8848 C.ar    
  21 C21           -8.2225     2.3124    -4.2087 C.ar    
  22 C22           -9.2463     3.1867    -4.5319 C.ar    
  23 C23          -10.0044     3.7648    -3.5279 C.ar    
  24 F24           -9.5020     3.4795    -5.8258 F       
  25 O25            1.0624     1.7689    -0.8307 O.3     
  26 C26            0.9355     3.0443    -1.4625 C.3     
  27 C27            1.7462    -1.2517     1.5497 C.2     
  28 N28            1.2022    -0.7044     0.4165 N.pl3   
  29 C29            2.9157    -1.8134     1.1888 C.2     
  30 N30            3.0859    -1.6176    -0.1272 N.2     
  31 C31            2.0665    -0.9546    -0.6012 C.2     
  32 C32            3.8684    -2.5371     2.1051 C.3     
  33 H33           -1.1232    -1.5387     1.3509 H       
  34 H34           -3.2629    -0.3425     1.1937 H       
  35 H35           -1.3088     2.8686    -0.8806 H       
  36 H36           -3.9558    -0.4600    -0.6899 H       
  37 H37           -4.9870    -0.6137     0.7519 H       
  38 H38           -3.7251     3.1391     0.0552 H       
  39 H39           -5.9422    -0.0815    -2.0946 H       
  40 H40           -6.0918    -1.6159    -1.2111 H       
  41 H41           -8.0929     4.4109    -0.2612 H       
  42 H42           -8.3245     3.5696     1.3052 H       
  43 H43           -9.4710     1.5456     1.3087 H       
  44 H44          -10.4992     2.4329     0.1582 H       
  45 H45           -9.9764     0.7724    -0.2127 H       
  46 H46          -10.3328     3.9157    -1.4213 H       
  47 H47           -7.1634     1.3316    -2.6325 H       
  48 H48           -7.6276     1.8643    -4.9909 H       
  49 H49          -10.8034     4.4467    -3.7788 H       
  50 H50            0.5682     3.7729    -0.7398 H       
  51 H51            1.9085     3.3627    -1.8369 H       
  52 H52            0.2332     2.9702    -2.2928 H       
  53 H53            1.3209    -1.2319     2.5422 H       
  54 H54            1.9325    -0.6550    -1.6302 H       
  55 H55            3.6130    -3.5964     2.1315 H       
  56 H56            4.8875    -2.4181     1.7370 H       
  57 H57            3.7939    -2.1202     3.1094 H       
@<TRIPOS>BOND
   1    1    2 ar
   2    1   25 1
   3    1    6 ar
   4    2    3 ar
   5    2   28 1
   6    3    4 ar
   7    3   33 1
   8    4    5 ar
   9    4   34 1
  10    5    6 ar
  11    5    9 1
  12    6   35 1
  13    7    8 1
  14    7   10 1
  15    7   36 1
  16    7   37 1
  17    8    9 2
  18    8   13 1
  19    9   38 1
  20   10   11 1
  21   10   39 1
  22   10   40 1
  23   11   12 1
  24   12   13 1
  25   12   14 1
  26   13   16 2
  27   14   15 1
  28   14   17 1
  29   14   18 1
  30   15   16 1
  31   15   41 1
  32   15   42 1
  33   17   19 ar
  34   17   20 ar
  35   18   43 1
  36   18   44 1
  37   18   45 1
  38   19   23 ar
  39   19   46 1
  40   20   21 ar
  41   20   47 1
  42   21   22 ar
  43   21   48 1
  44   22   23 ar
  45   22   24 1
  46   23   49 1
  47   25   26 1
  48   26   50 1
  49   26   51 1
  50   26   52 1
  51   27   28 1
  52   27   29 2
  53   27   53 1
  54   28   31 1
  55   29   30 1
  56   29   32 1
  57   30   31 2
  58   31   54 1
  59   32   55 1
  60   32   56 1
  61   32   57 1

#	End of record

