#	Name: ASD02198544
#	Creating user name:	WinNT
#	Creation time:	15. 06. 2019 20:19

#	Modifying user name:	WinNT
#	Modification time:	15. 06. 2019 20:19

#	Program:	/corina/corina34_cracker 3.40 0067  02.08.2006

@<TRIPOS>MOLECULE
ASD02198544
  41   44    0    0    0
SMALL
NO_CHARGES


@<TRIPOS>ATOM
   1 C1             0.1675     1.1668     0.0031 C.2     
   2 C2             0.2905    -0.1690     0.1889 C.2     
   3 N3             1.5034    -0.7414     0.3201 N.pl3   
   4 N4             2.6792     0.0126     0.2708 N.2     
   5 C5             2.6340     1.3107     0.0936 C.2     
   6 C6             1.3301     1.9641    -0.0527 C.2     
   7 C7             1.5878    -2.1246     0.5110 C.ar    
   8 C8             0.5186    -4.2401     0.8752 C.ar    
   9 C9             1.7547    -4.8606     0.8895 C.ar    
  10 C10            2.9075    -4.1160     0.7204 C.ar    
  11 C11            2.8278    -2.7502     0.5313 C.ar    
  12 N12            3.8129     2.0614     0.0453 N.pl3   
  13 C13            4.2999     2.7431    -1.0349 C.2     
  14 N14            5.4267     3.3222    -0.6835 N.2     
  15 C15            5.6898     3.0378     0.5972 C.2     
  16 C16            4.6975     2.2589     1.0741 C.2     
  17 C17            3.6681     2.8161    -2.3698 C.ar    
  18 C18            2.6992     1.8818    -2.7385 C.ar    
  19 O19            1.2518     3.1727    -0.2197 O.2     
  20 C20            4.0340     3.8230    -3.2642 C.ar    
  21 C21            3.4407     3.8854    -4.5081 C.ar    
  22 C22            2.4849     2.9527    -4.8697 C.ar    
  23 C23            2.1136     1.9555    -3.9855 C.ar    
  24 C24            0.4317    -2.8751     0.6865 C.ar    
  25 F25           -0.3951    -6.4026     1.2251 F       
  26 F26           -1.4223    -4.6054     2.1918 F       
  27 C27           -0.7352    -5.0557     1.0594 C.3     
  28 F28           -1.5520    -4.9163    -0.0678 F       
  29 H29           -0.8087     1.6158    -0.1055 H       
  30 H30           -0.5960    -0.7843     0.2327 H       
  31 H31            1.8196    -5.9290     1.0335 H       
  32 H32            3.8711    -4.6035     0.7325 H       
  33 H33            3.7286    -2.1692     0.3989 H       
  34 H34            6.5496     3.3775     1.1556 H       
  35 H35            4.6181     1.8607     2.0748 H       
  36 H36            2.4087     1.1026    -2.0494 H       
  37 H37            4.7797     4.5519    -2.9830 H       
  38 H38            3.7227     4.6643    -5.2011 H       
  39 H39            2.0235     3.0060    -5.8447 H       
  40 H40            1.3669     1.2304    -4.2738 H       
  41 H41           -0.5337    -2.3911     0.6757 H       
@<TRIPOS>BOND
   1    1    2 2
   2    1    6 1
   3    1   29 1
   4    2    3 1
   5    2   30 1
   6    3    4 1
   7    3    7 1
   8    4    5 2
   9    5    6 1
  10    5   12 1
  11    6   19 2
  12    7   24 ar
  13    7   11 ar
  14    8    9 ar
  15    8   27 1
  16    8   24 ar
  17    9   10 ar
  18    9   31 1
  19   10   11 ar
  20   10   32 1
  21   11   33 1
  22   12   13 1
  23   12   16 1
  24   13   14 2
  25   13   17 1
  26   14   15 1
  27   15   16 2
  28   15   34 1
  29   16   35 1
  30   17   20 ar
  31   17   18 ar
  32   18   23 ar
  33   18   36 1
  34   20   21 ar
  35   20   37 1
  36   21   22 ar
  37   21   38 1
  38   22   23 ar
  39   22   39 1
  40   23   40 1
  41   24   41 1
  42   25   27 1
  43   26   27 1
  44   27   28 1

#	End of record

