#	Name: ASD01881498
#	Creating user name:	WinNT
#	Creation time:	15. 06. 2019 19:42

#	Modifying user name:	WinNT
#	Modification time:	15. 06. 2019 19:42

#	Program:	/corina/corina34_cracker 3.40 0067  02.08.2006

@<TRIPOS>MOLECULE
ASD01881498
  38   40    0    0    0
SMALL
NO_CHARGES


@<TRIPOS>ATOM
   1 C1             0.1066     1.5191    -0.2187 C.3     
   2 C2             0.0021    -0.0041     0.0020 C.3     
   3 C3            -0.0817    -0.5904    -1.4292 C.3     
   4 C4             0.8929     0.3121    -2.2259 C.3     
   5 C5             0.6730     1.7202    -1.6352 C.3     
   6 C6             1.4969     2.1279    -0.4122 C.3     
   7 C7            -1.2422    -0.3396     0.7831 C.2     
   8 O8            -2.1916     0.4074     0.7573 O.2     
   9 O9            -1.2959    -1.4684     1.5075 O.3     
  10 C10            1.6542     3.6018    -0.1401 C.2     
  11 O11            0.7024     4.2553     0.2162 O.2     
  12 O12            2.8516     4.1885    -0.2937 O.3     
  13 F13            2.6005     1.3333    -0.0837 F       
  14 O14           -1.4099    -0.4803    -1.9446 O.3     
  15 C15           -1.7623    -1.5121    -2.8684 C.3     
  16 C16           -3.1757    -1.2982    -3.3452 C.ar    
  17 C17           -3.4170    -0.5292    -4.4684 C.ar    
  18 C18           -4.7140    -0.3330    -4.9066 C.ar    
  19 C19           -5.7705    -0.9073    -4.2197 C.ar    
  20 C20           -5.5273    -1.6764    -3.0962 C.ar    
  21 C21           -4.2298    -1.8758    -2.6626 C.ar    
  22 Cl22          -7.3992    -0.6616    -4.7681 Cl      
  23 Cl23          -5.0176     0.6330    -6.3167 Cl      
  24 N24            1.1949    -0.5059     0.6972 N.3     
  25 H25           -0.6971     2.1399     0.1772 H       
  26 H26            0.2541    -1.6273    -1.4420 H       
  27 H27            1.9229    -0.0096    -2.0719 H       
  28 H28            0.6430     0.3001    -3.2868 H       
  29 H29            0.2766     2.4871    -2.3006 H       
  30 H30           -2.1151    -1.6408     1.9917 H       
  31 H31            2.9033     5.1360    -0.1074 H       
  32 H32           -1.0832    -1.4843    -3.7205 H       
  33 H33           -1.6877    -2.4817    -2.3759 H       
  34 H34           -2.5927    -0.0813    -5.0035 H       
  35 H35           -6.3507    -2.1245    -2.5600 H       
  36 H36           -4.0400    -2.4797    -1.7876 H       
  37 H37            1.2533    -0.1306     1.6320 H       
  38 H38            1.2077    -1.5147     0.7111 H       
@<TRIPOS>BOND
   1    1    2 1
   2    1    6 1
   3    1    5 1
   4    1   25 1
   5    2    7 1
   6    2   24 1
   7    2    3 1
   8    3    4 1
   9    3   14 1
  10    3   26 1
  11    4    5 1
  12    4   27 1
  13    4   28 1
  14    5    6 1
  15    5   29 1
  16    6   10 1
  17    6   13 1
  18    7    8 2
  19    7    9 1
  20    9   30 1
  21   10   11 2
  22   10   12 1
  23   12   31 1
  24   14   15 1
  25   15   16 1
  26   15   32 1
  27   15   33 1
  28   16   17 ar
  29   16   21 ar
  30   17   18 ar
  31   17   34 1
  32   18   19 ar
  33   18   23 1
  34   19   20 ar
  35   19   22 1
  36   20   21 ar
  37   20   35 1
  38   21   36 1
  39   24   37 1
  40   24   38 1

#	End of record

