#	Name: ASD00450001
#	Creating user name:	WinNT
#	Creation time:	15. 06. 2019 18:35

#	Modifying user name:	WinNT
#	Modification time:	15. 06. 2019 18:35

#	Program:	/corina/corina34_cracker 3.40 0067  02.08.2006

@<TRIPOS>MOLECULE
ASD00450001
  59   63    0    0    0
SMALL
NO_CHARGES


@<TRIPOS>ATOM
   1 C1             0.1131     1.4695    -0.0660 C.2     
   2 N2             0.1744     0.3752    -0.8703 N.am    
   3 C3             1.3519    -0.2566    -1.0850 C.2     
   4 C4             2.5438     0.2883    -0.4179 C.ar    
   5 C5             2.3838     1.4295     0.3992 C.ar    
   6 N6             1.1475     1.9724     0.5354 N.2     
   7 C7             3.8025    -0.2877    -0.5727 C.ar    
   8 C8             4.8884     0.2699     0.0813 C.ar    
   9 C9             4.7245     1.3969     0.8869 C.ar    
  10 C10            3.4962     1.9714     1.0472 C.ar    
  11 N11            6.1562    -0.3002    -0.0665 N.pl3   
  12 C12            7.2781     0.5195    -0.2110 C.ar    
  13 C13            7.1218     1.8888    -0.3734 C.ar    
  14 C14            8.2390     2.6995    -0.5167 C.ar    
  15 C15            9.5098     2.1383    -0.4970 C.ar    
  16 C16            9.6622     0.7745    -0.3350 C.ar    
  17 C17            8.5527    -0.0348    -0.1864 C.ar    
  18 C18            8.7237    -1.5216    -0.0101 C.3     
  19 N19            8.0858     4.0797    -0.6811 N.am    
  20 C20            8.9735     4.9273    -0.1242 C.2     
  21 C21            8.7791     6.3797    -0.2456 C.2     
  22 O22            9.9357     4.4906     0.4789 O.2     
  23 N23            7.7629     7.0005    -0.8820 N.2     
  24 C24            7.9146     8.2894    -0.7862 C.2     
  25 N25            9.0422     8.5630    -0.0793 N.pl3   
  26 C26            9.6033     7.3668     0.2781 C.2     
  27 C27           10.8421     7.1662     1.0567 C.ar    
  28 C28           11.0765     7.9204     2.2084 C.ar    
  29 C29           12.2355     7.7276     2.9311 C.ar    
  30 C30           13.1649     6.7898     2.5170 C.ar    
  31 C31           12.9390     6.0391     1.3768 C.ar    
  32 C32           11.7817     6.2175     0.6478 C.ar    
  33 C33           -1.0450    -0.1250    -1.5100 C.3     
  34 O34            1.4216    -1.2379    -1.8020 O.2     
  35 C35            6.9827     9.3201    -1.3695 C.3     
  36 F36            5.7747     8.7095    -1.7233 F       
  37 F37            6.7398    10.3192    -0.4208 F       
  38 F38            7.5684     9.8884    -2.5058 F       
  39 H39           -0.8448     1.9475     0.0763 H       
  40 H40            3.9302    -1.1604    -1.1959 H       
  41 H41            5.5806     1.8205     1.3909 H       
  42 H42            3.3850     2.8439     1.6739 H       
  43 H43            6.2569    -1.2650    -0.0687 H       
  44 H44            6.1328     2.3226    -0.3888 H       
  45 H45           10.3796     2.7687    -0.6088 H       
  46 H46           10.6512     0.3408    -0.3201 H       
  47 H47            8.8095    -1.7541     1.0514 H       
  48 H48            7.8592    -2.0387    -0.4266 H       
  49 H49            9.6260    -1.8475    -0.5275 H       
  50 H50            7.3407     4.4271    -1.1959 H       
  51 H51            9.3848     9.4446     0.1359 H       
  52 H52           10.3523     8.6532     2.5323 H       
  53 H53           12.4181     8.3101     3.8220 H       
  54 H54           14.0710     6.6434     3.0862 H       
  55 H55           13.6686     5.3088     1.0593 H       
  56 H56           11.6066     5.6309    -0.2419 H       
  57 H57           -1.8889     0.5032    -1.2246 H       
  58 H58           -0.9236    -0.1004    -2.5929 H       
  59 H59           -1.2299    -1.1499    -1.1883 H       
@<TRIPOS>BOND
   1    1    2 1
   2    1    6 2
   3    1   39 1
   4    2    3 am
   5    2   33 1
   6    3    4 1
   7    3   34 2
   8    4    5 ar
   9    4    7 ar
  10    5    6 1
  11    5   10 ar
  12    7    8 ar
  13    7   40 1
  14    8    9 ar
  15    8   11 1
  16    9   10 ar
  17    9   41 1
  18   10   42 1
  19   11   12 1
  20   11   43 1
  21   12   13 ar
  22   12   17 ar
  23   13   14 ar
  24   13   44 1
  25   14   15 ar
  26   14   19 1
  27   15   16 ar
  28   15   45 1
  29   16   17 ar
  30   16   46 1
  31   17   18 1
  32   18   47 1
  33   18   48 1
  34   18   49 1
  35   19   20 am
  36   19   50 1
  37   20   21 1
  38   20   22 2
  39   21   23 1
  40   21   26 2
  41   23   24 2
  42   24   25 1
  43   24   35 1
  44   25   26 1
  45   25   51 1
  46   26   27 1
  47   27   28 ar
  48   27   32 ar
  49   28   29 ar
  50   28   52 1
  51   29   30 ar
  52   29   53 1
  53   30   31 ar
  54   30   54 1
  55   31   32 ar
  56   31   55 1
  57   32   56 1
  58   33   57 1
  59   33   58 1
  60   33   59 1
  61   35   36 1
  62   35   37 1
  63   35   38 1

#	End of record

