#	Name: ASD03331221
#	Creating user name:	WinNT
#	Creation time:	15. 06. 2019 20:38

#	Modifying user name:	WinNT
#	Modification time:	15. 06. 2019 20:38

#	Program:	/corina/corina34_cracker 3.40 0067  02.08.2006

@<TRIPOS>MOLECULE
ASD03331221
  48   51    0    0    0
SMALL
NO_CHARGES


@<TRIPOS>ATOM
   1 N1            -0.0459     1.4956     0.5700 N.am    
   2 C2             0.0020     0.1508     1.1636 C.3     
   3 C3             0.5966    -0.8152     0.1332 C.3     
   4 N4             1.8893    -0.2951    -0.3319 N.3     
   5 C5             1.7286     0.9909    -1.0236 C.3     
   6 C6             1.1804     2.0308    -0.0406 C.3     
   7 C7            -1.1848     2.2162     0.5805 C.2     
   8 O8            -2.2138     1.7208     0.9977 O.2     
   9 N9            -1.1831     3.4859     0.1284 N.am    
  10 C10           -2.3851     4.1963     0.0330 C.ar    
  11 C11           -2.4011     5.5680     0.2481 C.ar    
  12 C12           -3.5885     6.2678     0.1530 C.ar    
  13 C13           -4.7611     5.6045    -0.1560 C.ar    
  14 C14           -4.7496     4.2360    -0.3710 C.ar    
  15 C15           -3.5625     3.5316    -0.2826 C.ar    
  16 C16            2.5721    -1.2726    -1.1898 C.3     
  17 C17            3.7646    -0.6219    -1.8423 C.ar    
  18 C18            5.0072    -0.6546    -1.2139 C.ar    
  19 N19            6.0668    -0.1000    -1.7512 N.ar    
  20 C20            6.0014     0.5243    -2.9311 C.ar    
  21 C21            4.7674     0.5943    -3.6244 C.ar    
  22 C22            3.6290    -0.0043    -3.0533 C.ar    
  23 C23            4.7040     1.2522    -4.8635 C.ar    
  24 C24            7.1408     1.1178    -3.5024 C.ar    
  25 F25           -5.8973     3.5900    -0.6720 F       
  26 C26            7.0433     1.7469    -4.7050 C.ar    
  27 C27            5.8286     1.8152    -5.3846 C.ar    
  28 H28            0.6286     0.1662     2.0553 H       
  29 H29           -1.0062    -0.1695     1.4266 H       
  30 H30            0.7419    -1.7929     0.5927 H       
  31 H31           -0.0839    -0.9081    -0.7132 H       
  32 H32            2.6949     1.3230    -1.4031 H       
  33 H33            1.0324     0.8728    -1.8539 H       
  34 H34            0.9514     2.9535    -0.5737 H       
  35 H35            1.9204     2.2270     0.7354 H       
  36 H36           -0.3488     3.9073    -0.1309 H       
  37 H37           -1.4858     6.0876     0.4900 H       
  38 H38           -3.6005     7.3346     0.3208 H       
  39 H39           -5.6879     6.1540    -0.2297 H       
  40 H40           -3.5522     2.4655    -0.4549 H       
  41 H41            2.9042    -2.1169    -0.5857 H       
  42 H42            1.8842    -1.6243    -1.9587 H       
  43 H43            5.1003    -1.1497    -0.2586 H       
  44 H44            2.6732     0.0301    -3.5548 H       
  45 H45            3.7685     1.3108    -5.4001 H       
  46 H46            8.0898     1.0749    -2.9884 H       
  47 H47            7.9214     2.2016    -5.1394 H       
  48 H48            5.7791     2.3201    -6.3380 H       
@<TRIPOS>BOND
   1    1    2 1
   2    1    6 1
   3    1    7 am
   4    2    3 1
   5    2   28 1
   6    2   29 1
   7    3    4 1
   8    3   30 1
   9    3   31 1
  10    4    5 1
  11    4   16 1
  12    5    6 1
  13    5   32 1
  14    5   33 1
  15    6   34 1
  16    6   35 1
  17    7    8 2
  18    7    9 am
  19    9   10 1
  20    9   36 1
  21   10   11 ar
  22   10   15 ar
  23   11   12 ar
  24   11   37 1
  25   12   13 ar
  26   12   38 1
  27   13   14 ar
  28   13   39 1
  29   14   15 ar
  30   14   25 1
  31   15   40 1
  32   16   17 1
  33   16   41 1
  34   16   42 1
  35   17   18 ar
  36   17   22 ar
  37   18   19 ar
  38   18   43 1
  39   19   20 ar
  40   20   21 ar
  41   20   24 ar
  42   21   22 ar
  43   21   23 ar
  44   22   44 1
  45   23   27 ar
  46   23   45 1
  47   24   26 ar
  48   24   46 1
  49   26   27 ar
  50   26   47 1
  51   27   48 1

#	End of record

