#	Name: ASD05940132
#	Creating user name:	WinNT
#	Creation time:	15. 06. 2019 21:04

#	Modifying user name:	WinNT
#	Modification time:	15. 06. 2019 21:04

#	Program:	/corina/corina34_cracker 3.40 0067  02.08.2006

@<TRIPOS>MOLECULE
ASD05940132
  64   66    0    0    0
SMALL
NO_CHARGES


@<TRIPOS>ATOM
   1 O1            -2.2650    -1.1326    -1.4761 O.3     
   2 C2            -0.9121    -1.5065    -1.2081 C.3     
   3 C3            -0.0184    -0.2661    -1.2698 C.3     
   4 N4            -0.0561     0.2976    -2.6258 N.3     
   5 C5             0.4804     1.6650    -2.6426 C.3     
   6 C6             0.6648    -0.5625    -3.5737 C.3     
   7 C7             0.4011    -0.0911    -4.9805 C.2     
   8 C8             1.1551     0.8510    -5.6877 C.2     
   9 C9             2.3750     1.5717    -5.1745 C.3     
  10 C10           -0.6037    -0.5089    -5.7849 C.2     
  11 N11           -0.4929     0.1500    -6.9574 N.pl3   
  12 N12            0.6189     0.9979    -6.8721 N.2     
  13 C13           -1.6571    -1.5280    -5.4345 C.3     
  14 C14           -0.8221    -2.1310     0.1857 C.3     
  15 O15           -1.5635    -3.3524     0.2092 O.3     
  16 C16           -1.5860    -4.0385     1.3830 C.ar    
  17 C17           -2.2868    -5.2319     1.4754 C.ar    
  18 C18           -2.3096    -5.9288     2.6678 C.ar    
  19 C19           -1.6314    -5.4355     3.7725 C.ar    
  20 C20           -0.9299    -4.2426     3.6798 C.ar    
  21 C21           -0.9034    -3.5479     2.4862 C.ar    
  22 C22           -1.3769     0.0017    -8.1162 C.3     
  23 C23           -0.7755    -0.9848    -9.0838 C.ar    
  24 C24           -1.1612    -2.3113    -9.0474 C.ar    
  25 C25           -0.6095    -3.2165    -9.9350 C.ar    
  26 C26            0.3285    -2.7954   -10.8589 C.ar    
  27 C27            0.7154    -1.4689   -10.8959 C.ar    
  28 C28            0.1589    -0.5614   -10.0124 C.ar    
  29 Cl29           0.6440     1.1048   -10.0586 Cl      
  30 O30           -1.6547    -6.1211     4.9466 O.3     
  31 C31           -1.0754    -6.4602     7.2683 C.3     
  32 C32           -0.9343    -5.5547     6.0431 C.3     
  33 H33           -2.6264    -0.4892    -0.8512 H       
  34 H34           -0.5808    -2.2303    -1.9526 H       
  35 H35           -0.3780     0.4765    -0.5575 H       
  36 H36            1.0057    -0.5433    -1.0199 H       
  37 H37            1.5413     1.6421    -2.3934 H       
  38 H38            0.3497     2.0944    -3.6359 H       
  39 H39           -0.0516     2.2731    -1.9110 H       
  40 H40            1.7342    -0.5130    -3.3684 H       
  41 H41            0.3212    -1.5912    -3.4647 H       
  42 H42            3.2670     0.9933    -5.4154 H       
  43 H43            2.4411     2.5535    -5.6433 H       
  44 H44            2.2994     1.6896    -4.0935 H       
  45 H45           -2.5395    -1.0195    -5.0460 H       
  46 H46           -1.9267    -2.0933    -6.3266 H       
  47 H47           -1.2670    -2.2082    -4.6774 H       
  48 H48            0.2214    -2.3348     0.4259 H       
  49 H49           -1.2360    -1.4406     0.9207 H       
  50 H50           -2.8149    -5.6160     0.6152 H       
  51 H51           -2.8559    -6.8577     2.7400 H       
  52 H52           -0.4018    -3.8585     4.5401 H       
  53 H53           -0.3572    -2.6190     2.4140 H       
  54 H54           -2.3507    -0.3604    -7.7864 H       
  55 H55           -1.4958     0.9670    -8.6084 H       
  56 H56           -1.8935    -2.6410    -8.3254 H       
  57 H57           -0.9112    -4.2531    -9.9063 H       
  58 H58            0.7593    -3.5031   -11.5517 H       
  59 H59            1.4489    -1.1401   -11.6173 H       
  60 H60           -0.5259    -6.0281     8.1046 H       
  61 H61           -2.1287    -6.5509     7.5336 H       
  62 H62           -0.6721    -7.4466     7.0394 H       
  63 H63            0.1190    -5.4639     5.7777 H       
  64 H64           -1.3376    -4.5682     6.2719 H       
@<TRIPOS>BOND
   1    1    2 1
   2    1   33 1
   3    2    3 1
   4    2   14 1
   5    2   34 1
   6    3    4 1
   7    3   35 1
   8    3   36 1
   9    4    5 1
  10    4    6 1
  11    5   37 1
  12    5   38 1
  13    5   39 1
  14    6    7 1
  15    6   40 1
  16    6   41 1
  17    7    8 1
  18    7   10 2
  19    8    9 1
  20    8   12 2
  21    9   42 1
  22    9   43 1
  23    9   44 1
  24   10   11 1
  25   10   13 1
  26   11   12 1
  27   11   22 1
  28   13   45 1
  29   13   46 1
  30   13   47 1
  31   14   15 1
  32   14   48 1
  33   14   49 1
  34   15   16 1
  35   16   17 ar
  36   16   21 ar
  37   17   18 ar
  38   17   50 1
  39   18   19 ar
  40   18   51 1
  41   19   20 ar
  42   19   30 1
  43   20   21 ar
  44   20   52 1
  45   21   53 1
  46   22   23 1
  47   22   54 1
  48   22   55 1
  49   23   24 ar
  50   23   28 ar
  51   24   25 ar
  52   24   56 1
  53   25   26 ar
  54   25   57 1
  55   26   27 ar
  56   26   58 1
  57   27   28 ar
  58   27   59 1
  59   28   29 1
  60   30   32 1
  61   31   32 1
  62   31   60 1
  63   31   61 1
  64   31   62 1
  65   32   63 1
  66   32   64 1

#	End of record

