#	Name: ASD03092353
#	Creating user name:	WinNT
#	Creation time:	15. 06. 2019 20:32

#	Modifying user name:	WinNT
#	Modification time:	15. 06. 2019 20:32

#	Program:	/corina/corina34_cracker 3.40 0067  02.08.2006

@<TRIPOS>MOLECULE
ASD03092353
  58   61    0    0    0
SMALL
NO_CHARGES


@<TRIPOS>ATOM
   1 O1             0.8906     1.0032    -0.3454 O.3     
   2 N2             0.7499    -0.1961    -0.2858 N.2     
   3 C3             1.9051    -0.8120    -0.2408 C.2     
   4 C4             2.8976     0.2064    -0.2811 C.2     
   5 C5             2.1840     1.3541    -0.3481 C.2     
   6 C6             2.1324    -2.2757    -0.1634 C.2     
   7 O7             3.2652    -2.7135    -0.1273 O.2     
   8 N8             1.0824    -3.1201    -0.1332 N.am    
   9 C9             2.7363     2.7548    -0.4135 C.3     
  10 C10            1.3069    -4.5658    -0.0568 C.3     
  11 S11           -2.1410    -6.4560     0.6760 S.3     
  12 C12           -1.8185    -6.1980    -0.9828 C.2     
  13 N13           -0.6847    -5.5812    -1.1308 N.2     
  14 C14           -0.0200    -5.2799    -0.0365 C.2     
  15 C15           -0.6269    -5.6643     1.1058 C.2     
  16 C16            0.3988    -6.2705     4.6673 C.ar    
  17 C17           -0.0903    -6.5081     3.4011 C.ar    
  18 C18           -0.1132    -5.4576     2.4739 C.ar    
  19 C19            0.3658    -4.2055     2.8819 C.ar    
  20 C20            0.8368    -4.0577     4.1685 C.ar    
  21 N21            0.8407    -5.0746     5.0104 N.ar    
  22 C22            1.3549    -2.7167     4.6207 C.3     
  23 C23            0.4235    -7.3894     5.6765 C.3     
  24 N24           -2.6461    -6.5903    -2.0191 N.3     
  25 C25           -3.8490    -7.2626    -1.5071 C.3     
  26 C26           -4.7627    -7.6257    -2.6807 C.3     
  27 O27           -4.0395    -8.4409    -3.6069 O.3     
  28 C28           -2.8622    -7.8167    -4.1260 C.3     
  29 C29           -1.9292    -7.4556    -2.9671 C.3     
  30 C30           -2.1484    -8.7816    -5.0749 C.3     
  31 C31           -5.9783    -8.3967    -2.1623 C.3     
  32 H32            3.9712     0.0905    -0.2620 H       
  33 H33            0.1780    -2.7706    -0.1620 H       
  34 H34            1.9134     3.4681    -0.4595 H       
  35 H35            3.3373     2.9502     0.4746 H       
  36 H36            3.3577     2.8591    -1.3029 H       
  37 H37            1.8811    -4.8907    -0.9244 H       
  38 H38            1.8595    -4.8001     0.8531 H       
  39 H39           -0.4499    -7.4890     3.1274 H       
  40 H40            0.3663    -3.3693     2.1984 H       
  41 H41            0.5365    -2.1354     5.0453 H       
  42 H42            2.1276    -2.8615     5.3757 H       
  43 H43            1.7753    -2.1834     3.7681 H       
  44 H44            1.3717    -7.9222     5.6051 H       
  45 H45            0.3131    -6.9768     6.6793 H       
  46 H46           -0.3966    -8.0786     5.4749 H       
  47 H47           -3.5607    -8.1699    -0.9761 H       
  48 H48           -4.3778    -6.5947    -0.8272 H       
  49 H49           -5.0942    -6.7148    -3.1792 H       
  50 H50           -3.1384    -6.9113    -4.6666 H       
  51 H51           -1.0567    -6.9284    -3.3529 H       
  52 H52           -1.6103    -8.3659    -2.4594 H       
  53 H53           -2.8144    -9.0413    -5.8977 H       
  54 H54           -1.2512    -8.3053    -5.4702 H       
  55 H55           -1.8710    -9.6856    -4.5327 H       
  56 H56           -6.5268    -7.7763    -1.4535 H       
  57 H57           -6.6283    -8.6549    -2.9982 H       
  58 H58           -5.6456    -9.3082    -1.6657 H       
@<TRIPOS>BOND
   1    1    2 1
   2    1    5 1
   3    2    3 2
   4    3    4 1
   5    3    6 1
   6    4    5 2
   7    4   32 1
   8    5    9 1
   9    6    7 2
  10    6    8 am
  11    8   10 1
  12    8   33 1
  13    9   34 1
  14    9   35 1
  15    9   36 1
  16   10   14 1
  17   10   37 1
  18   10   38 1
  19   11   12 1
  20   11   15 1
  21   12   13 2
  22   12   24 1
  23   13   14 1
  24   14   15 2
  25   15   18 1
  26   16   17 ar
  27   16   21 ar
  28   16   23 1
  29   17   18 ar
  30   17   39 1
  31   18   19 ar
  32   19   20 ar
  33   19   40 1
  34   20   21 ar
  35   20   22 1
  36   22   41 1
  37   22   42 1
  38   22   43 1
  39   23   44 1
  40   23   45 1
  41   23   46 1
  42   24   25 1
  43   24   29 1
  44   25   26 1
  45   25   47 1
  46   25   48 1
  47   26   27 1
  48   26   31 1
  49   26   49 1
  50   27   28 1
  51   28   29 1
  52   28   30 1
  53   28   50 1
  54   29   51 1
  55   29   52 1
  56   30   53 1
  57   30   54 1
  58   30   55 1
  59   31   56 1
  60   31   57 1
  61   31   58 1

#	End of record

