#	Name: ASD02520001
#	Creating user name:	WinNT
#	Creation time:	15. 06. 2019 20:24

#	Modifying user name:	WinNT
#	Modification time:	15. 06. 2019 20:24

#	Program:	/corina/corina34_cracker 3.40 0067  02.08.2006

@<TRIPOS>MOLECULE
ASD02520001
   2    1    0    0    0
SMALL
NO_CHARGES


@<TRIPOS>ATOM
   1 Ca1            0.0000     0.0000     0.0000 Du      
   2 Ca2            0.0000     3.0000     0.0000 Du      
@<TRIPOS>BOND
   1    1    2 1

#	End of record

