#	Name: ASD03090477
#	Creating user name:	WinNT
#	Creation time:	15. 06. 2019 20:28

#	Modifying user name:	WinNT
#	Modification time:	15. 06. 2019 20:28

#	Program:	/corina/corina34_cracker 3.40 0067  02.08.2006

@<TRIPOS>MOLECULE
ASD03090477
  42   44    0    0    0
SMALL
NO_CHARGES


@<TRIPOS>ATOM
   1 C1             0.0623     1.4343     0.5977 C.ar    
   2 C2             0.1115     0.0567     0.8094 C.ar    
   3 C3             1.3025    -0.6147     0.5995 C.ar    
   4 C4             2.4115     0.1166     0.1826 C.ar    
   5 C5             2.2876     1.4901    -0.0085 C.ar    
   6 N6             1.1416     2.0978     0.1999 N.ar    
   7 C7            -1.2070     2.1630     0.8127 C.2     
   8 O8            -2.2000     1.5611     1.1721 O.2     
   9 N9            -1.2624     3.4943     0.6102 N.am    
  10 O10            3.5997    -0.5023    -0.0347 O.3     
  11 C11            3.6174    -1.9275     0.0689 C.3     
  12 C12            4.7641    -2.4860    -0.7761 C.3     
  13 C13            3.8184    -2.3300     1.5312 C.3     
  14 C14           -2.5194     4.2159     0.8231 C.3     
  15 N15           -1.3509     8.9556     2.0459 N.pl3   
  16 C16           -1.3172    10.0893     1.2805 C.2     
  17 C17           -1.6646     9.7988     0.0168 C.2     
  18 C18           -1.9436     8.3616    -0.0309 C.ar    
  19 C19           -2.3416     7.4832    -1.0408 C.ar    
  20 C20           -2.5235     6.1595    -0.7555 C.ar    
  21 C21           -2.3140     5.6799     0.5304 C.ar    
  22 C22           -1.9208     6.5288     1.5414 C.ar    
  23 C23           -1.7305     7.8807     1.2737 C.ar    
  24 H24           -0.7687    -0.4789     1.1334 H       
  25 H25            1.3706    -1.6812     0.7557 H       
  26 H26            3.1442     2.0631    -0.3315 H       
  27 H27           -0.4700     3.9746     0.3234 H       
  28 H28            2.6708    -2.3298    -0.2919 H       
  29 H29            5.7107    -2.0837    -0.4153 H       
  30 H30            4.7776    -3.5731    -0.6971 H       
  31 H31            4.6208    -2.1992    -1.8179 H       
  32 H32            3.0015    -1.9321     2.1332 H       
  33 H33            3.8319    -3.4171     1.6103 H       
  34 H34            4.7650    -1.9277     1.8920 H       
  35 H35           -3.2850     3.8163     0.1580 H       
  36 H36           -2.8377     4.0936     1.8584 H       
  37 H37           -1.1355     8.9145     2.9908 H       
  38 H38           -1.0509    11.0723     1.6400 H       
  39 H39           -1.7266    10.4931    -0.8081 H       
  40 H40           -2.5064     7.8491    -2.0434 H       
  41 H41           -2.8317     5.4806    -1.5369 H       
  42 H42           -1.7607     6.1461     2.5386 H       
@<TRIPOS>BOND
   1    1    2 ar
   2    1    6 ar
   3    1    7 1
   4    2    3 ar
   5    2   24 1
   6    3    4 ar
   7    3   25 1
   8    4    5 ar
   9    4   10 1
  10    5    6 ar
  11    5   26 1
  12    7    8 2
  13    7    9 am
  14    9   14 1
  15    9   27 1
  16   10   11 1
  17   11   12 1
  18   11   13 1
  19   11   28 1
  20   12   29 1
  21   12   30 1
  22   12   31 1
  23   13   32 1
  24   13   33 1
  25   13   34 1
  26   14   21 1
  27   14   35 1
  28   14   36 1
  29   15   16 1
  30   15   23 1
  31   15   37 1
  32   16   17 2
  33   16   38 1
  34   17   18 1
  35   17   39 1
  36   18   19 ar
  37   18   23 ar
  38   19   20 ar
  39   19   40 1
  40   20   21 ar
  41   20   41 1
  42   21   22 ar
  43   22   23 ar
  44   22   42 1

#	End of record

