#	Name: ASD03730073
#	Creating user name:	WinNT
#	Creation time:	15. 06. 2019 20:43

#	Modifying user name:	WinNT
#	Modification time:	15. 06. 2019 20:43

#	Program:	/corina/corina34_cracker 3.40 0067  02.08.2006

@<TRIPOS>MOLECULE
ASD03730073
  49   54    0    0    0
SMALL
NO_CHARGES


@<TRIPOS>ATOM
   1 C1            -0.0466     1.4850     0.2242 C.2     
   2 C2            -0.0457    -0.0219     0.2061 C.3     
   3 O3             0.9868     2.0897     0.4181 O.2     
   4 N4            -1.1946     2.1607     0.0195 N.am    
   5 O5             5.7354     2.7525     3.4576 O.3     
   6 C6             7.0872     2.6733     3.9469 C.3     
   7 O7             7.1825     1.3370     4.4744 O.3     
   8 C8             6.2761     0.5993     3.7680 C.ar    
   9 C9             5.3859     1.4702     3.1438 C.ar    
  10 C10            6.1369    -0.7671     3.6036 C.ar    
  11 C11            5.1098    -1.2818     2.8181 C.ar    
  12 C12            4.2219    -0.4021     2.2064 C.ar    
  13 C13            4.3617     0.9610     2.3634 C.ar    
  14 O14            4.8090    -2.5773     2.5157 O.3     
  15 C15            3.2241    -1.2485     1.4620 C.3     
  16 C16            3.4506    -2.6514     2.0417 C.3     
  17 N17            1.3138    -0.5124     0.4456 N.am    
  18 C18            1.8133    -0.7781     1.6691 C.2     
  19 C19            3.4410    -1.2145    -0.0218 C.ar    
  20 C20            4.5086    -1.5241    -0.8346 C.ar    
  21 C21            4.3976    -1.3862    -2.2068 C.ar    
  22 C22            3.2125    -0.9361    -2.7597 C.ar    
  23 C23            2.1407    -0.6238    -1.9497 C.ar    
  24 C24            2.2432    -0.7600    -0.5675 C.ar    
  25 O25            1.2361    -0.6607     2.7294 O.2     
  26 C26           -1.2153     3.5562     0.1328 C.ar    
  27 C27           -0.1178     4.3030    -0.2745 C.ar    
  28 C28           -0.1408     5.6810    -0.1620 C.ar    
  29 C29           -1.2593     6.3159     0.3577 C.ar    
  30 C30           -2.3531     5.5717     0.7637 C.ar    
  31 C31           -2.3354     4.1950     0.6473 C.ar    
  32 F32           -1.2806     7.6622     0.4681 F       
  33 F33            0.9262     6.4090    -0.5579 F       
  34 H34           -0.7093    -0.3950     0.9863 H       
  35 H35           -0.3931    -0.3738    -0.7653 H       
  36 H36           -2.0064     1.6803    -0.2064 H       
  37 H37            7.7980     2.8152     3.1328 H       
  38 H38            7.2533     3.4086     4.7341 H       
  39 H39            6.8299    -1.4391     4.0880 H       
  40 H40            3.6703     1.6330     1.8767 H       
  41 H41            3.3520    -3.4112     1.2664 H       
  42 H42            2.7633    -2.8455     2.8652 H       
  43 H43            5.4331    -1.8751    -0.4007 H       
  44 H44            5.2344    -1.6298    -2.8447 H       
  45 H45            3.1260    -0.8284    -3.8309 H       
  46 H46            1.2187    -0.2725    -2.3889 H       
  47 H47            0.7530     3.8081    -0.6784 H       
  48 H48           -3.2230     6.0678     1.1681 H       
  49 H49           -3.1914     3.6156     0.9603 H       
@<TRIPOS>BOND
   1    1    2 1
   2    1    3 2
   3    1    4 am
   4    2   17 1
   5    2   34 1
   6    2   35 1
   7    4   26 1
   8    4   36 1
   9    5    6 1
  10    5    9 1
  11    6    7 1
  12    6   37 1
  13    6   38 1
  14    7    8 1
  15    8    9 ar
  16    8   10 ar
  17    9   13 ar
  18   10   11 ar
  19   10   39 1
  20   11   12 ar
  21   11   14 1
  22   12   13 ar
  23   12   15 1
  24   13   40 1
  25   14   16 1
  26   15   16 1
  27   15   18 1
  28   15   19 1
  29   16   41 1
  30   16   42 1
  31   17   18 am
  32   17   24 1
  33   18   25 2
  34   19   20 ar
  35   19   24 ar
  36   20   21 ar
  37   20   43 1
  38   21   22 ar
  39   21   44 1
  40   22   23 ar
  41   22   45 1
  42   23   24 ar
  43   23   46 1
  44   26   27 ar
  45   26   31 ar
  46   27   28 ar
  47   27   47 1
  48   28   29 ar
  49   28   33 1
  50   29   30 ar
  51   29   32 1
  52   30   31 ar
  53   30   48 1
  54   31   49 1

#	End of record

