#	Name: ASD05213042
#	Creating user name:	WinNT
#	Creation time:	15. 06. 2019 20:57

#	Modifying user name:	WinNT
#	Modification time:	15. 06. 2019 20:57

#	Program:	/corina/corina34_cracker 3.40 0067  02.08.2006

@<TRIPOS>MOLECULE
ASD05213042
  28   30    0    0    0
SMALL
NO_CHARGES


@<TRIPOS>ATOM
   1 S1            -0.0218     1.7577     0.0117 S.3     
   2 C2             0.0021    -0.0041     0.0020 C.2     
   3 N3             1.0843    -0.7423    -0.0118 N.2     
   4 C4             0.7402    -2.0564    -0.0149 C.ar    
   5 C5            -0.6631    -2.1168    -0.0019 C.ar    
   6 N6            -1.1053    -0.8044     0.0138 N.pl3   
   7 C7             1.4795    -3.2421    -0.0277 C.ar    
   8 C8             0.8272    -4.4546    -0.0274 C.ar    
   9 C9            -0.5588    -4.5084    -0.0145 C.ar    
  10 C10           -1.3032    -3.3469    -0.0014 C.ar    
  11 C11            1.7090     2.0873    -0.0030 C.2     
  12 S12            2.4091     3.6471    -0.0014 S.3     
  13 C13            4.0206     2.9356    -0.0199 C.2     
  14 C14            3.8872     1.6083    -0.0256 C.2     
  15 N15            2.6378     1.1818    -0.0111 N.2     
  16 N16            5.3014     3.6816    -0.0282 N.pl3   
  17 O17            6.3585     3.0767    -0.0415 O.2     
  18 O18            5.2967     4.8996    -0.0218 O.2     
  19 S19            1.7601    -5.9493    -0.0441 S.o2    
  20 O20            0.9071    -6.9487    -0.5852 O.2     
  21 O21            3.0273    -5.6252    -0.5993 O.2     
  22 O22            2.0129    -6.3388     1.4054 O.3     
  23 H23           -2.0290    -0.5085     0.0253 H       
  24 H24            2.5589    -3.2076    -0.0381 H       
  25 H25           -1.0585    -5.4659    -0.0144 H       
  26 H26           -2.3820    -3.3956     0.0089 H       
  27 H27            4.7329     0.9367    -0.0374 H       
  28 H28            2.5224    -7.1539     1.5105 H       
@<TRIPOS>BOND
   1    1    2 1
   2    1   11 1
   3    2    3 2
   4    2    6 1
   5    3    4 1
   6    4    5 ar
   7    4    7 ar
   8    5    6 1
   9    5   10 ar
  10    6   23 1
  11    7    8 ar
  12    7   24 1
  13    8    9 ar
  14    8   19 1
  15    9   10 ar
  16    9   25 1
  17   10   26 1
  18   11   12 1
  19   11   15 2
  20   12   13 1
  21   13   14 2
  22   13   16 1
  23   14   15 1
  24   14   27 1
  25   16   17 2
  26   16   18 2
  27   19   20 2
  28   19   21 2
  29   19   22 1
  30   22   28 1

#	End of record

