#	Name: ASD01230668
#	Creating user name:	WinNT
#	Creation time:	15. 06. 2019 19:14

#	Modifying user name:	WinNT
#	Modification time:	15. 06. 2019 19:14

#	Program:	/corina/corina34_cracker 3.40 0067  02.08.2006

@<TRIPOS>MOLECULE
ASD01230668
  28   28    0    0    0
SMALL
NO_CHARGES


@<TRIPOS>ATOM
   1 C1            -0.0162     1.3436     0.0094 C.2     
   2 N2             0.0021    -0.0041     0.0020 N.am    
   3 O3             1.0277     1.9653     0.0028 O.2     
   4 O4            -1.1912     2.0008     0.0186 O.3     
   5 C5             1.2189    -0.6848    -0.0133 C.ar    
   6 C6             1.2306    -2.0759    -0.0208 C.ar    
   7 C7             2.4458    -2.7386    -0.0360 C.ar    
   8 C8             3.6114    -1.9842    -0.0431 C.ar    
   9 C9             3.5250    -0.6064    -0.0349 C.ar    
  10 N10            2.3522    -0.0017    -0.0259 N.ar    
  11 Br11          -0.3913    -3.0482    -0.0100 Br      
  12 C12           -1.1349     3.4517     0.0262 C.3     
  13 C13           -0.4003     3.9402    -1.2239 C.3     
  14 C14           -2.5565     4.0172     0.0360 C.3     
  15 C15           -0.3885     3.9266     1.2745 C.3     
  16 H16           -0.8313    -0.5005     0.0073 H       
  17 H17            2.4863    -3.8178    -0.0418 H       
  18 H18            4.5757    -2.4703    -0.0545 H       
  19 H19            4.4291    -0.0157    -0.0403 H       
  20 H20           -0.9321     3.6019    -2.1132 H       
  21 H21           -0.3581     5.0293    -1.2182 H       
  22 H22            0.6124     3.5373    -1.2309 H       
  23 H23           -3.0798     3.6692     0.9266 H       
  24 H24           -2.5142     5.1064     0.0417 H       
  25 H25           -3.0883     3.6789    -0.8533 H       
  26 H26            0.6243     3.5237     1.2675 H       
  27 H27           -0.3462     5.0157     1.2802 H       
  28 H28           -0.9118     3.5786     2.1651 H       
@<TRIPOS>BOND
   1    1    2 am
   2    1    3 2
   3    1    4 1
   4    2    5 1
   5    2   16 1
   6    4   12 1
   7    5    6 ar
   8    5   10 ar
   9    6    7 ar
  10    6   11 1
  11    7    8 ar
  12    7   17 1
  13    8    9 ar
  14    8   18 1
  15    9   10 ar
  16    9   19 1
  17   12   13 1
  18   12   15 1
  19   12   14 1
  20   13   20 1
  21   13   21 1
  22   13   22 1
  23   14   23 1
  24   14   24 1
  25   14   25 1
  26   15   26 1
  27   15   27 1
  28   15   28 1

#	End of record

