#	Name: ASD01810515
#	Creating user name:	WinNT
#	Creation time:	15. 06. 2019 19:24

#	Modifying user name:	WinNT
#	Modification time:	15. 06. 2019 19:24

#	Program:	/corina/corina34_cracker 3.40 0067  02.08.2006

@<TRIPOS>MOLECULE
ASD01810515
  76   78    0    0    0
SMALL
NO_CHARGES


@<TRIPOS>ATOM
   1 C1            -0.1196     1.0816     0.6530 C.ar    
   2 C2             0.0063    -0.2997     0.6044 C.ar    
   3 C3             1.2343    -0.8880     0.3825 C.ar    
   4 C4             2.3680    -0.0988     0.2032 C.ar    
   5 C5             2.2348     1.2995     0.2416 C.ar    
   6 C6             0.9858     1.8830     0.4730 C.ar    
   7 N7             3.5905    -0.7118     0.0035 N.3     
   8 C8             4.5550     0.1111    -0.7274 C.3     
   9 C9             4.7624     1.4407     0.0123 C.3     
  10 C10            3.4187     2.1478     0.0272 C.2     
  11 C11            3.4236    -2.0225    -0.6385 C.3     
  12 C12            4.7780    -2.6109    -0.9388 C.ar    
  13 C13            5.4084    -3.4083    -0.0020 C.ar    
  14 C14            6.6509    -3.9480    -0.2775 C.ar    
  15 C15            7.2627    -3.6907    -1.4900 C.ar    
  16 C16            6.6320    -2.8941    -2.4272 C.ar    
  17 C17            5.3876    -2.3579    -2.1535 C.ar    
  18 Br18          -1.5219    -1.3871     0.8456 Br      
  19 O19            3.3258     3.3472    -0.1296 O.2     
  20 C20            5.2225     1.1790     1.4233 C.2     
  21 O21            5.3734     0.0396     1.8104 O.2     
  22 C22            7.4294     5.3778     8.5824 C.3     
  23 C23            7.8788     5.1222     9.9606 C.1     
  24 C24            8.2373     4.9183    11.0598 C.1     
  25 C25            8.6867     4.6627    12.4380 C.3     
  26 O26            8.8761     5.9065    13.1157 O.3     
  27 C27            9.2912     5.8481    14.4013 C.2     
  28 N28            9.5288     4.7807    15.0616 N.2     
  29 C29            9.5597     7.0391    15.3014 C.3     
  30 C30            9.6053     6.3927    16.7069 C.3     
  31 O31            9.9568     5.0299    16.3858 O.3     
  32 N32            7.2348     4.0993     7.8857 N.4     
  33 C33            8.5032     3.3588     7.8577 C.3     
  34 C34            6.2202     3.3060     8.5924 C.3     
  35 N35            5.4663     2.2111     2.2550 N.am    
  36 C36            5.9136     1.9567     3.6266 C.3     
  37 C37            6.1163     3.2884     4.3522 C.3     
  38 C38            6.5835     3.0227     5.7847 C.3     
  39 C39            6.7862     4.3544     6.5103 C.3     
  40 H40           -1.0869     1.5289     0.8279 H       
  41 H41            1.3170    -1.9643     0.3480 H       
  42 H42            0.8881     2.9579     0.5102 H       
  43 H43            5.5054    -0.4182    -0.7960 H       
  44 H44            4.1769     0.3089    -1.7304 H       
  45 H45            5.4979     2.0491    -0.5138 H       
  46 H46            2.8786    -2.6881     0.0309 H       
  47 H47            2.8650    -1.9038    -1.5669 H       
  48 H48            4.9304    -3.6093     0.9454 H       
  49 H49            7.1437    -4.5704     0.4548 H       
  50 H50            8.2338    -4.1118    -1.7050 H       
  51 H51            7.1102    -2.6928    -3.3745 H       
  52 H52            4.8948    -1.7355    -2.8857 H       
  53 H53            6.4882     5.9272     8.6031 H       
  54 H54            8.1822     5.9664     8.0580 H       
  55 H55            7.9339     4.0741    12.9624 H       
  56 H56            9.6279     4.1133    12.4172 H       
  57 H57           10.5159     7.5015    15.0567 H       
  58 H58            8.7492     7.7650    15.2352 H       
  59 H59           10.3731     6.8570    17.3258 H       
  60 H60            8.6307     6.4437    17.1923 H       
  61 H61            9.2560     3.9474     7.3333 H       
  62 H62            8.8360     3.1695     8.8783 H       
  63 H63            8.3587     2.4101     7.3408 H       
  64 H64            6.0758     2.3573     8.0755 H       
  65 H65            6.5530     3.1168     9.6130 H       
  66 H66            5.2790     3.8555     8.6132 H       
  67 H67            5.3456     3.1224     1.9454 H       
  68 H68            5.1608     1.3682     4.1510 H       
  69 H69            6.8548     1.4073     3.6059 H       
  70 H70            6.8691     3.8770     3.8278 H       
  71 H71            5.1752     3.8378     4.3730 H       
  72 H72            5.8307     2.4341     6.3091 H       
  73 H73            7.5247     2.4733     5.7640 H       
  74 H74            5.8451     4.9038     6.5311 H       
  75 H75            7.5390     4.9429     5.9859 H       
  76 Br76          15.5159    12.7650    22.3258 Br      
@<TRIPOS>BOND
   1    1    2 ar
   2    1    6 ar
   3    1   40 1
   4    2    3 ar
   5    2   18 1
   6    3    4 ar
   7    3   41 1
   8    4    5 ar
   9    4    7 1
  10    5    6 ar
  11    5   10 1
  12    6   42 1
  13    7    8 1
  14    7   11 1
  15    8    9 1
  16    8   43 1
  17    8   44 1
  18    9   10 1
  19    9   20 1
  20    9   45 1
  21   10   19 2
  22   11   12 1
  23   11   46 1
  24   11   47 1
  25   12   13 ar
  26   12   17 ar
  27   13   14 ar
  28   13   48 1
  29   14   15 ar
  30   14   49 1
  31   15   16 ar
  32   15   50 1
  33   16   17 ar
  34   16   51 1
  35   17   52 1
  36   20   35 am
  37   20   21 2
  38   22   23 1
  39   22   32 1
  40   22   53 1
  41   22   54 1
  42   23   24 3
  43   24   25 1
  44   25   26 1
  45   25   55 1
  46   25   56 1
  47   26   27 1
  48   27   28 2
  49   27   29 1
  50   28   31 1
  51   29   30 1
  52   29   57 1
  53   29   58 1
  54   30   31 1
  55   30   59 1
  56   30   60 1
  57   32   39 1
  58   32   33 1
  59   32   34 1
  60   33   61 1
  61   33   62 1
  62   33   63 1
  63   34   64 1
  64   34   65 1
  65   34   66 1
  66   35   36 1
  67   35   67 1
  68   36   37 1
  69   36   68 1
  70   36   69 1
  71   37   38 1
  72   37   70 1
  73   37   71 1
  74   38   39 1
  75   38   72 1
  76   38   73 1
  77   39   74 1
  78   39   75 1

#	End of record

