#	Name: ASD01901305
#	Creating user name:	WinNT
#	Creation time:	15. 06. 2019 19:53

#	Modifying user name:	WinNT
#	Modification time:	15. 06. 2019 19:53

#	Program:	/corina/corina34_cracker 3.40 0067  02.08.2006

@<TRIPOS>MOLECULE
ASD01901305
  36   39    0    0    0
SMALL
NO_CHARGES


@<TRIPOS>ATOM
   1 C1             1.0334    -0.4868     0.2290 C.ar    
   2 C2            -0.1319     0.2600     0.3368 C.ar    
   3 C3            -0.0733     1.6437     0.3555 C.ar    
   4 C4             1.1442     2.2867     0.2671 C.ar    
   5 C5             2.3184     1.5420     0.1591 C.ar    
   6 C6             2.2564     0.1484     0.1405 C.ar    
   7 C7             3.6272     2.2285     0.0639 C.ar    
   8 N8             4.6471     1.8012     0.7858 N.ar    
   9 C9             3.7803     3.3368    -0.8055 C.ar    
  10 N10            4.9426     3.9558    -0.8985 N.ar    
  11 C11            5.9805     3.5343    -0.1680 C.ar    
  12 C12            5.8288     2.4214     0.6989 C.ar    
  13 C13            7.2283     4.1769    -0.2502 C.ar    
  14 C14            8.2698     3.7289     0.5031 C.ar    
  15 C15            8.1195     2.6385     1.3581 C.ar    
  16 C16            6.9294     1.9852     1.4572 C.ar    
  17 C17            2.6303     3.8029    -1.6148 C.ar    
  18 C18            2.3401     5.1644    -1.6997 C.ar    
  19 C19            1.2679     5.5925    -2.4555 C.ar    
  20 C20            0.4816     4.6743    -3.1281 C.ar    
  21 C21            0.7641     3.3224    -3.0472 C.ar    
  22 C22            1.8371     2.8825    -2.2993 C.ar    
  23 F23            0.9713    -1.8363     0.2164 F       
  24 F24           -1.3266    -0.3647     0.4232 F       
  25 H25           -0.9825     2.2205     0.4391 H       
  26 H26            1.1879     3.3657     0.2811 H       
  27 H27            3.1630    -0.4325     0.0570 H       
  28 H28            7.3601     5.0226    -0.9088 H       
  29 H29            9.2266     4.2254     0.4370 H       
  30 H30            8.9615     2.3024     1.9449 H       
  31 H31            6.8291     1.1394     2.1212 H       
  32 H32            2.9531     5.8821    -1.1748 H       
  33 H33            1.0420     6.6465    -2.5218 H       
  34 H34           -0.3566     5.0142    -3.7183 H       
  35 H35            0.1462     2.6103    -3.5739 H       
  36 H36            2.0569     1.8270    -2.2373 H       
@<TRIPOS>BOND
   1    1    2 ar
   2    1    6 ar
   3    1   23 1
   4    2    3 ar
   5    2   24 1
   6    3    4 ar
   7    3   25 1
   8    4    5 ar
   9    4   26 1
  10    5    6 ar
  11    5    7 1
  12    6   27 1
  13    7    9 ar
  14    7    8 ar
  15    8   12 ar
  16    9   10 ar
  17    9   17 1
  18   10   11 ar
  19   11   13 ar
  20   11   12 ar
  21   12   16 ar
  22   13   14 ar
  23   13   28 1
  24   14   15 ar
  25   14   29 1
  26   15   16 ar
  27   15   30 1
  28   16   31 1
  29   17   18 ar
  30   17   22 ar
  31   18   19 ar
  32   18   32 1
  33   19   20 ar
  34   19   33 1
  35   20   21 ar
  36   20   34 1
  37   21   22 ar
  38   21   35 1
  39   22   36 1

#	End of record

