#	Name: ASD01815885
#	Creating user name:	WinNT
#	Creation time:	15. 06. 2019 19:34

#	Modifying user name:	WinNT
#	Modification time:	15. 06. 2019 19:34

#	Program:	/corina/corina34_cracker 3.40 0067  02.08.2006

@<TRIPOS>MOLECULE
ASD01815885
  55   60    0    0    0
SMALL
NO_CHARGES


@<TRIPOS>ATOM
   1 C1             0.1064     1.4783     0.3822 C.ar    
   2 C2             0.0862     0.0932     0.3735 C.ar    
   3 C3             1.2565    -0.6271     0.2345 C.ar    
   4 C4             2.4729     0.0371     0.1014 C.ar    
   5 C5             2.4904     1.4412     0.1101 C.ar    
   6 C6             1.3031     2.1568     0.2509 C.ar    
   7 N7             3.6500    -0.6796    -0.0373 N.pl3   
   8 C8             4.8508    -0.0941    -0.1688 C.2     
   9 C9             4.9914     1.2715    -0.1748 C.2     
  10 C10            3.7896     2.1248    -0.0323 C.2     
  11 C11            6.1080     2.2037    -0.2951 C.2     
  12 N12            5.5736     3.4421    -0.2261 N.am    
  13 N13            4.1875     3.3643    -0.0691 N.2     
  14 C14            6.3052     4.6348    -0.3006 C.ar    
  15 O15            7.2874     1.9209    -0.4304 O.2     
  16 C16            3.5814    -2.1430    -0.0402 C.3     
  17 C17            3.4357    -2.6362    -1.4567 C.ar    
  18 C18            4.5556    -2.7854    -2.2541 C.ar    
  19 C19            4.4252    -3.2368    -3.5528 C.ar    
  20 C20            3.1682    -3.5414    -4.0575 C.ar    
  21 C21            2.0457    -3.3911    -3.2544 C.ar    
  22 C22            2.1830    -2.9442    -1.9547 C.ar    
  23 N23            3.0326    -3.9994    -5.3755 N.pl3   
  24 C24            1.8731    -4.3298    -5.9879 C.2     
  25 F25            1.3217     3.5076     0.2587 F       
  26 F26            1.2209    -1.9776     0.2282 F       
  27 C27            2.1705    -4.7220    -7.2484 C.2     
  28 C28            3.5568    -4.6287    -7.4128 C.2     
  29 N29            4.0736    -4.1901    -6.2933 N.2     
  30 C30            6.1962     5.5855     0.7121 C.ar    
  31 C31            7.1445     4.8700    -1.3803 C.ar    
  32 C32            7.8647     6.0471    -1.4515 C.ar    
  33 C33            7.7521     6.9925    -0.4485 C.ar    
  34 C34            6.9220     6.7631     0.6329 C.ar    
  35 O35            5.3795     5.3585     1.7750 O.3     
  36 C36            5.3178     6.3774     2.7751 C.3     
  37 H37           -0.8163     2.0295     0.4875 H       
  38 H38           -0.8538    -0.4285     0.4766 H       
  39 H39            5.7294    -0.7137    -0.2723 H       
  40 H40            4.4943    -2.5503     0.3943 H       
  41 H41            2.7229    -2.4676     0.5477 H       
  42 H42            5.5332    -2.5483    -1.8609 H       
  43 H43            5.3002    -3.3524    -4.1753 H       
  44 H44            1.0666    -3.6269    -3.6443 H       
  45 H45            1.3102    -2.8270    -1.3295 H       
  46 H46            0.8869    -4.2886    -5.5495 H       
  47 H47            1.4627    -5.0493    -7.9956 H       
  48 H48            4.1056    -4.8722    -8.3106 H       
  49 H49            7.2350     4.1332    -2.1647 H       
  50 H50            8.5176     6.2290    -2.2923 H       
  51 H51            8.3173     7.9109    -0.5082 H       
  52 H52            6.8364     7.5036     1.4144 H       
  53 H53            6.3108     6.5332     3.1967 H       
  54 H54            4.9638     7.3056     2.3267 H       
  55 H55            4.6319     6.0705     3.5646 H       
@<TRIPOS>BOND
   1    1    2 ar
   2    1    6 ar
   3    1   37 1
   4    2    3 ar
   5    2   38 1
   6    3    4 ar
   7    3   26 1
   8    4    5 ar
   9    4    7 1
  10    5    6 ar
  11    5   10 1
  12    6   25 1
  13    7    8 1
  14    7   16 1
  15    8    9 2
  16    8   39 1
  17    9   10 1
  18    9   11 1
  19   10   13 2
  20   11   12 am
  21   11   15 2
  22   12   13 1
  23   12   14 1
  24   14   30 ar
  25   14   31 ar
  26   16   17 1
  27   16   40 1
  28   16   41 1
  29   17   18 ar
  30   17   22 ar
  31   18   19 ar
  32   18   42 1
  33   19   20 ar
  34   19   43 1
  35   20   21 ar
  36   20   23 1
  37   21   22 ar
  38   21   44 1
  39   22   45 1
  40   23   24 1
  41   23   29 1
  42   24   27 2
  43   24   46 1
  44   27   28 1
  45   27   47 1
  46   28   29 2
  47   28   48 1
  48   30   35 1
  49   30   34 ar
  50   31   32 ar
  51   31   49 1
  52   32   33 ar
  53   32   50 1
  54   33   34 ar
  55   33   51 1
  56   34   52 1
  57   35   36 1
  58   36   53 1
  59   36   54 1
  60   36   55 1

#	End of record

