#	Name: ASD01881572
#	Creating user name:	WinNT
#	Creation time:	15. 06. 2019 19:42

#	Modifying user name:	WinNT
#	Modification time:	15. 06. 2019 19:42

#	Program:	/corina/corina34_cracker 3.40 0067  02.08.2006

@<TRIPOS>MOLECULE
ASD01881572
  33   34    0    0    0
SMALL
NO_CHARGES


@<TRIPOS>ATOM
   1 N1            -0.0169     1.3985     0.0097 N.pl3   
   2 N2             0.0021    -0.0041     0.0020 N.2     
   3 N3             1.2207    -0.4155    -0.0118 N.2     
   4 C4             2.0693     0.6321    -0.0143 C.ar    
   5 C5             1.2974     1.8066    -0.0006 C.ar    
   6 C6             3.4676     0.7294    -0.0265 C.ar    
   7 C7             4.0678     1.9708    -0.0249 C.ar    
   8 C8             3.2942     3.1302    -0.0112 C.ar    
   9 C9             1.9195     3.0501     0.0005 C.ar    
  10 O10            5.4245     2.0647    -0.0362 O.3     
  11 C11           -1.2023     2.2593     0.0203 C.3     
  12 C12           -2.0453     1.9817    -1.2260 C.3     
  13 C13           -2.4803     0.5148    -1.2312 C.3     
  14 C14           -3.2833     2.8807    -1.2150 C.3     
  15 C15           -1.2154     2.2720    -2.4781 C.3     
  16 C16           -2.0323     1.9690     1.2724 C.3     
  17 Br17           4.1373     4.8228    -0.0086 Br      
  18 Br18           4.5273    -0.8367    -0.0444 Br      
  19 H19            1.3254     3.9520     0.0107 H       
  20 H20            5.8091     2.0967    -0.9229 H       
  21 H21           -0.8925     3.3043     0.0240 H       
  22 H22           -3.0715     0.3080    -0.3391 H       
  23 H23           -3.0808     0.3171    -2.1191 H       
  24 H24           -1.5983    -0.1256    -1.2390 H       
  25 H25           -2.9734     3.9257    -1.2113 H       
  26 H26           -3.8838     2.6829    -2.1028 H       
  27 H27           -3.8746     2.6739    -0.3229 H       
  28 H28           -0.3334     1.6315    -2.4860 H       
  29 H29           -1.8159     2.0742    -3.3660 H       
  30 H30           -0.9055     3.3170    -2.4744 H       
  31 H31           -1.4317     2.1668     2.1603 H       
  32 H32           -2.9142     2.6095     1.2803 H       
  33 H33           -2.3421     0.9240     1.2687 H       
@<TRIPOS>BOND
   1    1    2 1
   2    1    5 1
   3    1   11 1
   4    2    3 2
   5    3    4 1
   6    4    5 ar
   7    4    6 ar
   8    5    9 ar
   9    6    7 ar
  10    6   18 1
  11    7    8 ar
  12    7   10 1
  13    8    9 ar
  14    8   17 1
  15    9   19 1
  16   10   20 1
  17   11   12 1
  18   11   16 1
  19   11   21 1
  20   12   13 1
  21   12   14 1
  22   12   15 1
  23   13   22 1
  24   13   23 1
  25   13   24 1
  26   14   25 1
  27   14   26 1
  28   14   27 1
  29   15   28 1
  30   15   29 1
  31   15   30 1
  32   16   31 1
  33   16   32 1
  34   16   33 1

#	End of record

