#	Name: ASD01840185
#	Creating user name:	WinNT
#	Creation time:	15. 06. 2019 19:37

#	Modifying user name:	WinNT
#	Modification time:	15. 06. 2019 19:37

#	Program:	/corina/corina34_cracker 3.40 0067  02.08.2006

@<TRIPOS>MOLECULE
ASD01840185
  48   51    0    0    0
SMALL
NO_CHARGES


@<TRIPOS>ATOM
   1 C1            -1.7060     1.4937    -0.1461 C.3     
   2 C2            -1.7812    -0.0425    -0.0821 C.3     
   3 N3            -1.2496    -0.7090    -1.2734 N.am    
   4 C4            -1.6777    -1.9439    -1.6022 C.2     
   5 C5            -1.1471    -2.6092    -2.7913 C.2     
   6 O6            -2.5064    -2.5055    -0.9092 O.2     
   7 C7            -1.5132    -3.8476    -3.2052 C.2     
   8 C8            -0.8440    -4.2883    -4.4151 C.ar    
   9 C9             0.0513    -3.3292    -4.9077 C.ar    
  10 S10            0.0402    -1.9079    -3.8732 S.3     
  11 C11           -0.9645    -5.4984    -5.1356 C.ar    
  12 C12           -0.1983    -5.6561    -6.2695 C.ar    
  13 N13            0.6207    -4.6939    -6.6583 N.ar    
  14 N14            0.7426    -3.5907    -6.0195 N.ar    
  15 C15           -0.2935    -6.9299    -7.0691 C.3     
  16 C16           -1.9033    -6.5843    -4.6766 C.3     
  17 N17           -2.4455    -4.6249    -2.5313 N.pl3   
  18 C18           -0.7716     0.0548     1.0759 C.3     
  19 N19           -0.3785     1.3566     0.4927 N.3     
  20 C20           -0.2010     2.3185     1.4897 C.ar    
  21 C21           -1.1753     2.4998     2.4620 C.ar    
  22 C22            0.9533     3.0914     1.5130 C.ar    
  23 C23            1.1287     4.0425     2.4996 C.ar    
  24 C24            0.1575     4.2282     3.4646 C.ar    
  25 C25           -0.9955     3.4553     3.4494 C.ar    
  26 O26           -1.9475     3.6356     4.4023 O.3     
  27 C27           -1.6959     4.6380     5.3892 C.3     
  28 H28           -1.6662     1.8895    -1.1610 H       
  29 H29           -2.4444     1.9960     0.4789 H       
  30 H30           -2.7585    -0.4218     0.2164 H       
  31 H31           -0.5894    -0.2616    -1.8256 H       
  32 H32           -1.0692    -6.8256    -7.8277 H       
  33 H33            0.6632    -7.1279    -7.5524 H       
  34 H34           -0.5435    -7.7577    -6.4054 H       
  35 H35           -2.9063    -6.3796    -5.0510 H       
  36 H36           -1.5616    -7.5458    -5.0596 H       
  37 H37           -1.9209    -6.6127    -3.5871 H       
  38 H38           -2.6497    -4.4398    -1.6012 H       
  39 H39           -2.8926    -5.3530    -2.9904 H       
  40 H40           -1.2367     0.1363     2.0583 H       
  41 H41            0.0147    -0.6990     1.0374 H       
  42 H42           -2.0717     1.8976     2.4486 H       
  43 H43            1.7139     2.9483     0.7599 H       
  44 H44            2.0270     4.6419     2.5166 H       
  45 H45            0.2977     4.9723     4.2347 H       
  46 H46           -0.7820     4.3934     5.9307 H       
  47 H47           -1.5816     5.6065     4.9025 H       
  48 H48           -2.5320     4.6786     6.0873 H       
@<TRIPOS>BOND
   1    1    2 1
   2    1   19 1
   3    1   28 1
   4    1   29 1
   5    2    3 1
   6    2   18 1
   7    2   30 1
   8    3    4 am
   9    3   31 1
  10    4    5 1
  11    4    6 2
  12    5    7 2
  13    5   10 1
  14    7    8 1
  15    7   17 1
  16    8    9 ar
  17    8   11 ar
  18    9   10 1
  19    9   14 ar
  20   11   12 ar
  21   11   16 1
  22   12   13 ar
  23   12   15 1
  24   13   14 ar
  25   15   32 1
  26   15   33 1
  27   15   34 1
  28   16   35 1
  29   16   36 1
  30   16   37 1
  31   17   38 1
  32   17   39 1
  33   18   19 1
  34   18   40 1
  35   18   41 1
  36   19   20 1
  37   20   22 ar
  38   20   21 ar
  39   21   25 ar
  40   21   42 1
  41   22   23 ar
  42   22   43 1
  43   23   24 ar
  44   23   44 1
  45   24   25 ar
  46   24   45 1
  47   25   26 1
  48   26   27 1
  49   27   46 1
  50   27   47 1
  51   27   48 1

#	End of record

