#	Name: ASD00842117
#	Creating user name:	WinNT
#	Creation time:	15. 06. 2019 18:43

#	Modifying user name:	WinNT
#	Modification time:	15. 06. 2019 18:43

#	Program:	/corina/corina34_cracker 3.40 0067  02.08.2006

@<TRIPOS>MOLECULE
ASD00842117
  96  101    0    0    0
SMALL
NO_CHARGES


@<TRIPOS>ATOM
   1 F1             6.1007    -1.6592    -1.9674 F       
   2 C2             1.0099     1.5592    -0.3881 C.ar    
   3 C3             1.3158     0.2286    -0.6327 C.ar    
   4 C4             1.2454    -0.6978     0.3978 C.ar    
   5 C5             0.8710    -0.2931     1.6643 C.ar    
   6 C6             0.5661     1.0340     1.9055 C.ar    
   7 C7             0.6359     1.9590     0.8805 C.ar    
   8 C8             1.5766    -2.1444     0.1355 C.3     
   9 C9             1.3066    -2.9821     1.3672 C.2     
  10 C10            0.7733    -2.6691    -1.0563 C.3     
  11 C11           -0.6957    -2.4370    -0.8132 C.2     
  12 N12           -1.6062    -2.9080    -1.6882 N.am    
  13 O13           -1.0587    -1.8263     0.1698 O.2     
  14 C14           -3.0324    -2.5941    -1.5263 C.3     
  15 C15           -3.8280    -3.9032    -1.5217 C.3     
  16 C16           -3.4994    -4.6996    -2.7866 C.3     
  17 C17           -2.0077    -5.0410    -2.8033 C.3     
  18 C18           -1.1908    -3.7402    -2.8256 C.3     
  19 C19           -4.3183    -5.9918    -2.8024 C.3     
  20 C20           -5.8112    -5.6518    -2.7874 C.3     
  21 C21           -6.6249    -6.9456    -2.8648 C.3     
  22 N22           -6.2816    -7.6684    -4.0961 N.3     
  23 C23           -4.8628    -8.0470    -4.1115 C.3     
  24 C24           -3.9965    -6.7861    -4.0713 C.3     
  25 C25           -7.1425    -8.8454    -4.2731 C.3     
  26 O26            0.2348    -3.1336     1.9145 O.2     
  27 N27            2.4769    -3.5268     1.7397 N.am    
  28 C28            3.0591    -2.3127    -0.1062 C.ar    
  29 C29            3.5255    -3.1541     0.8961 C.ar    
  30 C30            3.9138    -1.8125    -1.0624 C.ar    
  31 C31            5.2581    -2.1481    -1.0313 C.ar    
  32 C32            5.7349    -2.9865    -0.0364 C.ar    
  33 C33            4.8776    -3.4881     0.9226 C.ar    
  34 Cl34           7.4185    -3.4081     0.0044 Cl      
  35 C35            2.4013    -6.1748     2.4860 C.ar    
  36 C36            1.1570    -6.5601     2.0080 C.ar    
  37 C37            3.4429    -7.0826     2.5154 C.ar    
  38 C38            3.2484    -8.3754     2.0688 C.ar    
  39 C39            2.0056    -8.7657     1.5898 C.ar    
  40 C40            0.9591    -7.8572     1.5597 C.ar    
  41 O41            1.8147   -10.0376     1.1510 O.3     
  42 O42            0.1330    -5.6671     1.9797 O.3     
  43 C43           -1.1201    -6.1328     1.4749 C.3     
  44 C44            2.9370   -10.9201     1.2115 C.3     
  45 C45           -6.9304    -9.4267    -5.6724 C.3     
  46 O46            1.6834    -0.1672    -1.8798 O.3     
  47 C47            2.1677     0.2184    -4.2159 C.3     
  48 C48            1.6254     0.8154    -2.9157 C.3     
  49 S49            2.6556    -4.5247     3.0492 S.o2    
  50 O50            4.0202    -4.4386     3.4361 O.2     
  51 O51            1.5785    -4.2302     3.9280 O.2     
  52 H52            1.0682     2.2830    -1.1876 H       
  53 H53            0.8161    -1.0138     2.4668 H       
  54 H54            0.2729     1.3483     2.8962 H       
  55 H55            0.3973     2.9949     1.0714 H       
  56 H56            1.0795    -2.1433    -1.9606 H       
  57 H57            0.9574    -3.7367    -1.1767 H       
  58 H58           -3.1863    -2.0696    -0.5832 H       
  59 H59           -3.3648    -1.9673    -2.3538 H       
  60 H60           -3.5593    -4.4891    -0.6428 H       
  61 H61           -4.8948    -3.6805    -1.4989 H       
  62 H62           -3.7453    -4.1033    -3.6653 H       
  63 H63           -1.7561    -5.6163    -1.9123 H       
  64 H64           -1.7788    -5.6282    -3.6927 H       
  65 H65           -1.3742    -3.2095    -3.7598 H       
  66 H66           -0.1296    -3.9735    -2.7377 H       
  67 H67           -4.0721    -6.5899    -1.9250 H       
  68 H68           -6.0548    -5.1233    -1.8658 H       
  69 H69           -6.0493    -5.0204    -3.6434 H       
  70 H70           -6.3967    -7.5704    -2.0013 H       
  71 H71           -7.6883    -6.7062    -2.8687 H       
  72 H72           -4.6429    -8.6666    -3.2421 H       
  73 H73           -4.6464    -8.6075    -5.0209 H       
  74 H74           -4.2060    -6.1726    -4.9476 H       
  75 H75           -2.9436    -7.0679    -4.0670 H       
  76 H76           -6.8889    -9.5968    -3.5253 H       
  77 H77           -8.1860    -8.5533    -4.1553 H       
  78 H78            3.5372    -1.1597    -1.8360 H       
  79 H79            5.2562    -4.1411     1.6951 H       
  80 H80            4.4107    -6.7808     2.8878 H       
  81 H81            4.0641    -9.0828     2.0921 H       
  82 H82           -0.0088    -8.1591     1.1876 H       
  83 H83           -0.9951    -6.4678     0.4453 H       
  84 H84           -1.4724    -6.9631     2.0869 H       
  85 H85           -1.8486    -5.3227     1.5076 H       
  86 H86            3.2703   -11.0137     2.2451 H       
  87 H87            2.6491   -11.9006     0.8324 H       
  88 H88            3.7478   -10.5190     0.6033 H       
  89 H89           -5.8869    -9.7188    -5.7901 H       
  90 H90           -7.5692   -10.3000    -5.8037 H       
  91 H91           -7.1840    -8.6753    -6.4202 H       
  92 H92            2.2052     0.9919    -4.9830 H       
  93 H93            3.1706    -0.1731    -4.0453 H       
  94 H94            1.5137    -0.5889    -4.5455 H       
  95 H95            0.5915     1.1277    -3.0628 H       
  96 H96            2.2288     1.6779    -2.6326 H       
@<TRIPOS>BOND
   1    1   31 1
   2    2    3 ar
   3    2    7 ar
   4    2   52 1
   5    3    4 ar
   6    3   46 1
   7    4    5 ar
   8    4    8 1
   9    5    6 ar
  10    5   53 1
  11    6    7 ar
  12    6   54 1
  13    7   55 1
  14    8    9 1
  15    8   10 1
  16    8   28 1
  17    9   26 2
  18    9   27 am
  19   10   11 1
  20   10   56 1
  21   10   57 1
  22   11   12 am
  23   11   13 2
  24   12   14 1
  25   12   18 1
  26   14   15 1
  27   14   58 1
  28   14   59 1
  29   15   16 1
  30   15   60 1
  31   15   61 1
  32   16   17 1
  33   16   19 1
  34   16   62 1
  35   17   18 1
  36   17   63 1
  37   17   64 1
  38   18   65 1
  39   18   66 1
  40   19   20 1
  41   19   24 1
  42   19   67 1
  43   20   21 1
  44   20   68 1
  45   20   69 1
  46   21   22 1
  47   21   70 1
  48   21   71 1
  49   22   23 1
  50   22   25 1
  51   23   24 1
  52   23   72 1
  53   23   73 1
  54   24   74 1
  55   24   75 1
  56   25   45 1
  57   25   76 1
  58   25   77 1
  59   27   49 am
  60   27   29 1
  61   28   29 ar
  62   28   30 ar
  63   29   33 ar
  64   30   31 ar
  65   30   78 1
  66   31   32 ar
  67   32   33 ar
  68   32   34 1
  69   33   79 1
  70   35   36 ar
  71   35   37 ar
  72   35   49 1
  73   36   42 1
  74   36   40 ar
  75   37   38 ar
  76   37   80 1
  77   38   39 ar
  78   38   81 1
  79   39   40 ar
  80   39   41 1
  81   40   82 1
  82   41   44 1
  83   42   43 1
  84   43   83 1
  85   43   84 1
  86   43   85 1
  87   44   86 1
  88   44   87 1
  89   44   88 1
  90   45   89 1
  91   45   90 1
  92   45   91 1
  93   46   48 1
  94   47   48 1
  95   47   92 1
  96   47   93 1
  97   47   94 1
  98   48   95 1
  99   48   96 1
 100   49   50 2
 101   49   51 2

#	End of record

