#	Name: ASD09740517
#	Creating user name:	WinNT
#	Creation time:	15. 06. 2019 21:23

#	Modifying user name:	WinNT
#	Modification time:	15. 06. 2019 21:23

#	Program:	/corina/corina34_cracker 3.40 0067  02.08.2006

@<TRIPOS>MOLECULE
ASD09740517
  49   52    0    0    0
SMALL
NO_CHARGES


@<TRIPOS>ATOM
   1 C1            -0.0169     1.3706     0.0250 C.2     
   2 C2             0.0016    -0.0039     0.0167 C.2     
   3 C3             1.2004     1.9547     0.0064 C.2     
   4 S4             2.4490     0.7165    -0.0233 S.3     
   5 C5             1.2339    -0.5548    -0.0087 C.2     
   6 C6             1.4459     3.4119     0.0100 C.ar    
   7 C7             2.7508     3.8983    -0.0107 C.ar    
   8 C8             0.3684     4.3023     0.0283 C.ar    
   9 C9             0.5918     5.6627     0.0312 C.ar    
  10 C10            1.8873     6.1582     0.0160 C.ar    
  11 C11            2.9763     5.2742    -0.0077 C.ar    
  12 O12            2.1012     7.4983     0.0185 O.3     
  13 C13            0.9504     8.3392    -0.0840 C.3     
  14 C14            0.3489     8.5522     1.3066 C.3     
  15 C15            1.3568     9.6900    -0.6763 C.3     
  16 C16            4.3148     5.7831    -0.0229 C.1     
  17 N17            5.3766     6.1867    -0.0349 N.1     
  18 C18            1.5184    -2.0045    -0.0218 C.ar    
  19 C19            2.3996    -2.5365    -0.9680 C.ar    
  20 C20            2.6608    -3.8912    -0.9749 C.ar    
  21 C21            2.0500    -4.7182    -0.0450 C.ar    
  22 C22            1.1779    -4.1971     0.8929 C.ar    
  23 C23            0.9123    -2.8438     0.9138 C.ar    
  24 C24            3.1815    -1.8572    -2.0717 C.3     
  25 C25            4.2773    -2.8683    -2.4709 C.3     
  26 C26            3.6373    -4.2186    -2.0846 C.3     
  27 N27            4.6651    -5.1500    -1.6008 N.3     
  28 H28           -0.9347     1.9397     0.0405 H       
  29 H29           -0.9005    -0.5976     0.0299 H       
  30 H30            3.5848     3.2124    -0.0286 H       
  31 H31           -0.6428     3.9232     0.0398 H       
  32 H32           -0.2451     6.3452     0.0450 H       
  33 H33            0.2114     7.8664    -0.7309 H       
  34 H34            1.0879     9.0250     1.9535 H       
  35 H35           -0.5289     9.1936     1.2284 H       
  36 H36            0.0593     7.5899     1.7286 H       
  37 H37            1.7853     9.5382    -1.6670 H       
  38 H38            0.4790    10.3314    -0.7545 H       
  39 H39            2.0958    10.1628    -0.0294 H       
  40 H40            2.2567    -5.7782    -0.0535 H       
  41 H41            0.7069    -4.8502     1.6126 H       
  42 H42            0.2312    -2.4365     1.6463 H       
  43 H43            2.5321    -1.6479    -2.9217 H       
  44 H44            3.6328    -0.9359    -1.7036 H       
  45 H45            4.4732    -2.8246    -3.5423 H       
  46 H46            5.1904    -2.6952    -1.9014 H       
  47 H47            3.1106    -4.6455    -2.9381 H       
  48 H48            4.2578    -6.0370    -1.3451 H       
  49 H49            5.3948    -5.2716    -2.2870 H       
@<TRIPOS>BOND
   1    1    2 1
   2    1    3 2
   3    1   28 1
   4    2    5 2
   5    2   29 1
   6    3    4 1
   7    3    6 1
   8    4    5 1
   9    5   18 1
  10    6    7 ar
  11    6    8 ar
  12    7   11 ar
  13    7   30 1
  14    8    9 ar
  15    8   31 1
  16    9   10 ar
  17    9   32 1
  18   10   11 ar
  19   10   12 1
  20   11   16 1
  21   12   13 1
  22   13   14 1
  23   13   15 1
  24   13   33 1
  25   14   34 1
  26   14   35 1
  27   14   36 1
  28   15   37 1
  29   15   38 1
  30   15   39 1
  31   16   17 3
  32   18   19 ar
  33   18   23 ar
  34   19   20 ar
  35   19   24 1
  36   20   21 ar
  37   20   26 1
  38   21   22 ar
  39   21   40 1
  40   22   23 ar
  41   22   41 1
  42   23   42 1
  43   24   25 1
  44   24   43 1
  45   24   44 1
  46   25   26 1
  47   25   45 1
  48   25   46 1
  49   26   27 1
  50   26   47 1
  51   27   48 1
  52   27   49 1

#	End of record

