#	Name: ASD01411153
#	Creating user name:	WinNT
#	Creation time:	15. 06. 2019 19:19

#	Modifying user name:	WinNT
#	Modification time:	15. 06. 2019 19:19

#	Program:	/corina/corina34_cracker 3.40 0067  02.08.2006

@<TRIPOS>MOLECULE
ASD01411153
  50   52    0    0    0
SMALL
NO_CHARGES


@<TRIPOS>ATOM
   1 C1            -0.1105     2.1560    -1.0672 C.ar    
   2 C2             0.0384     0.9409    -1.6984 C.ar    
   3 C3             1.2423     0.2382    -1.5879 C.ar    
   4 C4             2.2933     0.7778    -0.8331 C.ar    
   5 C5             2.1262     2.0086    -0.2013 C.ar    
   6 C6             0.9277     2.6902    -0.3209 C.ar    
   7 C7             1.4053    -1.0628    -2.2609 C.2     
   8 O8             3.1401     2.5393     0.5332 O.3     
   9 C9             2.9481     3.8593     1.0456 C.3     
  10 C10            4.2128     4.3256     1.7194 C.ar    
  11 C11            4.4342     4.0322     3.0521 C.ar    
  12 C12            5.1537     5.0416     1.0032 C.ar    
  13 C13            6.3139     5.4695     1.6206 C.ar    
  14 C14            6.5335     5.1810     2.9558 C.ar    
  15 C15            5.5940     4.4595     3.6706 C.ar    
  16 Cl16           7.9904     5.7181     3.7321 Cl      
  17 O17            0.3650    -1.6198    -2.9117 O.3     
  18 O18            2.4777    -1.6332    -2.2290 O.2     
  19 N19            3.4977     0.0873    -0.7149 N.am    
  20 C20            4.6416     0.6472    -1.1560 C.2     
  21 O21            4.6151     1.7312    -1.7063 O.2     
  22 C22            5.9255    -0.0548    -0.9711 C.ar    
  23 C23            7.1300     0.5775    -1.3097 C.ar    
  24 C24            8.3311    -0.0921    -1.1317 C.ar    
  25 C25            8.3392    -1.3762    -0.6235 C.ar    
  26 C26            7.1514    -2.0044    -0.2877 C.ar    
  27 C27            5.9487    -1.3515    -0.4522 C.ar    
  28 O28            7.1205     1.8385    -1.8097 O.3     
  29 C29            8.3734     2.3763    -2.2376 C.3     
  30 C30            8.1774     3.7950    -2.7063 C.2     
  31 O31            9.2004     4.4674    -3.2569 O.3     
  32 O32            7.0993     4.3273    -2.5867 O.2     
  33 H33           -1.0404     2.6978    -1.1581 H       
  34 H34           -0.7750     0.5305    -2.2784 H       
  35 H35            0.8010     3.6439     0.1698 H       
  36 H36            2.7026     4.5350     0.2263 H       
  37 H37            2.1322     3.8534     1.7684 H       
  38 H38            3.7007     3.4692     3.6101 H       
  39 H39            4.9824     5.2664    -0.0392 H       
  40 H40            7.0491     6.0286     1.0609 H       
  41 H41            5.7667     4.2305     4.7119 H       
  42 H42            0.5201    -2.4738    -3.3378 H       
  43 H43            3.5129    -0.7964    -0.3152 H       
  44 H44            9.2615     0.3911    -1.3912 H       
  45 H45            9.2773    -1.8937    -0.4874 H       
  46 H46            7.1679    -3.0089     0.1087 H       
  47 H47            5.0253    -1.8435    -0.1844 H       
  48 H48            9.0778     2.3625    -1.4058 H       
  49 H49            8.7666     1.7740    -3.0566 H       
  50 H50            9.0264     5.3747    -3.5424 H       
@<TRIPOS>BOND
   1    1    2 ar
   2    1    6 ar
   3    1   33 1
   4    2    3 ar
   5    2   34 1
   6    3    4 ar
   7    3    7 1
   8    4    5 ar
   9    4   19 1
  10    5    6 ar
  11    5    8 1
  12    6   35 1
  13    7   17 1
  14    7   18 2
  15    8    9 1
  16    9   10 1
  17    9   36 1
  18    9   37 1
  19   10   12 ar
  20   10   11 ar
  21   11   15 ar
  22   11   38 1
  23   12   13 ar
  24   12   39 1
  25   13   14 ar
  26   13   40 1
  27   14   15 ar
  28   14   16 1
  29   15   41 1
  30   17   42 1
  31   19   20 am
  32   19   43 1
  33   20   21 2
  34   20   22 1
  35   22   23 ar
  36   22   27 ar
  37   23   24 ar
  38   23   28 1
  39   24   25 ar
  40   24   44 1
  41   25   26 ar
  42   25   45 1
  43   26   27 ar
  44   26   46 1
  45   27   47 1
  46   28   29 1
  47   29   30 1
  48   29   48 1
  49   29   49 1
  50   30   31 1
  51   30   32 2
  52   31   50 1

#	End of record

