#	Name: ASD01190001
#	Creating user name:	WinNT
#	Creation time:	15. 06. 2019 19:07

#	Modifying user name:	WinNT
#	Modification time:	15. 06. 2019 19:07

#	Program:	/corina/corina34_cracker 3.40 0067  02.08.2006

@<TRIPOS>MOLECULE
ASD01190001
  99  102    0    0    0
SMALL
NO_CHARGES


@<TRIPOS>ATOM
   1 C1            -0.2431    -6.9941    13.8188 C.3     
   2 O2             0.5357    -8.1214    13.3382 O.3     
   3 C3             0.1559    -8.6728    12.1748 C.2     
   4 O4            -0.7959    -8.2282    11.5778 O.2     
   5 C5             0.9165    -9.8463    11.6133 C.3     
   6 O6             0.3240   -10.2506    10.3773 O.3     
   7 C7             0.9733   -11.3627     9.7578 C.3     
   8 C8             0.2586   -11.7065     8.4494 C.3     
   9 O9             0.4035   -10.6233     7.5287 O.3     
  10 C10           -0.2312   -10.8437     6.2675 C.3     
  11 C11           -0.0124    -9.6264     5.3668 C.3     
  12 O12            1.3797    -9.4962     5.0718 O.3     
  13 C13            1.6943    -8.3836     4.2320 C.3     
  14 C14            3.2035    -8.3427     3.9838 C.3     
  15 N15            3.6056    -9.5284     3.2231 N.am    
  16 C16            4.8985    -9.7067     2.8866 C.2     
  17 S17            6.0708    -8.5476     3.3481 S.2     
  18 N18            5.2684   -10.7975     2.1868 N.am    
  19 C19            6.6737   -10.9914     1.8210 C.3     
  20 C20            6.8212   -12.2968     1.0368 C.3     
  21 S21            8.5613   -12.5368     0.5839 S.3     
  22 C22            8.5340   -14.1076    -0.3229 C.3     
  23 C23            9.9302   -14.4514    -0.7741 C.2     
  24 O24           10.8488   -13.7130    -0.5111 O.2     
  25 C25           10.1799   -15.7168    -1.5536 C.3     
  26 O26            9.0409   -16.0367    -2.3550 O.3     
  27 C27           11.4364   -15.5585    -2.4456 C.3     
  28 C28           11.0554   -15.7049    -3.9201 C.3     
  29 C29           12.4130   -16.6931    -2.0321 C.3     
  30 C30           11.4783   -17.7475    -1.4292 C.3     
  31 C31           10.4985   -16.8677    -0.6048 C.3     
  32 C32           11.2066   -16.3318     0.6411 C.3     
  33 C33            9.3343   -17.7508    -0.1987 C.3     
  34 C34            9.8901   -18.8322     0.7413 C.3     
  35 O35           10.4061   -18.2066     1.9179 O.3     
  36 C36           11.0027   -19.6388     0.0779 C.3     
  37 C37           12.1217   -18.7264    -0.4639 C.3     
  38 C38           13.1654   -19.5720    -1.1960 C.3     
  39 C39           13.8379   -20.5298    -0.2073 C.3     
  40 C40           12.7530   -21.3437     0.4730 C.2     
  41 C41           12.8592   -22.6652     0.4926 C.2     
  42 C42           11.8176   -23.4896     1.1246 C.2     
  43 O43           11.9314   -24.6998     1.1816 O.2     
  44 C44           10.6342   -22.8173     1.6873 C.2     
  45 C45           10.5528   -21.4962     1.6626 C.2     
  46 C46           11.6035   -20.6087     1.0996 C.3     
  47 C47           12.1772   -19.7772     2.2487 C.3     
  48 F48           10.4691   -20.3677    -0.9904 F       
  49 H49           -0.2053    -6.1878    13.0863 H       
  50 H50           -1.2779    -7.3036    13.9654 H       
  51 H51            0.1693    -6.6448    14.7653 H       
  52 H52            1.9538    -9.5587    11.4420 H       
  53 H53            0.8812   -10.6745    12.3211 H       
  54 H54            2.0118   -11.1065     9.5481 H       
  55 H55            0.9392   -12.2223    10.4272 H       
  56 H56            0.6973   -12.6080     8.0218 H       
  57 H57           -0.7998   -11.8761     8.6473 H       
  58 H58            0.1973   -11.7273     5.7945 H       
  59 H59           -1.2998   -10.9954     6.4200 H       
  60 H60           -0.5698    -9.7559     4.4391 H       
  61 H61           -0.3610    -8.7289     5.8778 H       
  62 H62            1.1724    -8.4874     3.2808 H       
  63 H63            1.3812    -7.4604     4.7195 H       
  64 H64            3.4545    -7.4456     3.4178 H       
  65 H65            3.7286    -8.3285     4.9389 H       
  66 H66            2.9414   -10.1852     2.9616 H       
  67 H67            4.6042   -11.4543     1.9253 H       
  68 H68            7.0069   -10.1570     1.2038 H       
  69 H69            7.2810   -11.0399     2.7249 H       
  70 H70            6.4880   -13.1311     1.6540 H       
  71 H71            6.2139   -12.2482     0.1329 H       
  72 H72            8.1580   -14.8966     0.3283 H       
  73 H73            7.8838   -14.0137    -1.1928 H       
  74 H74            8.8027   -15.3493    -2.9921 H       
  75 H75           11.8972   -14.5858    -2.2734 H       
  76 H76           10.3288   -14.9370    -4.1857 H       
  77 H77           11.9459   -15.5919    -4.5384 H       
  78 H78           10.6200   -16.6902    -4.0868 H       
  79 H79           12.9326   -17.0914    -2.9036 H       
  80 H80           13.1245   -16.3371    -1.2870 H       
  81 H81           10.9424   -18.2750    -2.2183 H       
  82 H82           10.4757   -15.8665     1.3025 H       
  83 H83           11.6967   -17.1541     1.1624 H       
  84 H84           11.9518   -15.5930     0.3461 H       
  85 H85            8.5823   -17.1576     0.3215 H       
  86 H86            8.8958   -18.2161    -1.0815 H       
  87 H87            9.0824   -19.5077     1.0231 H       
  88 H88            9.7485   -17.7012     2.4152 H       
  89 H89           12.5833   -18.1820     0.3599 H       
  90 H90           12.6787   -20.1468    -1.9840 H       
  91 H91           13.9179   -18.9181    -1.6367 H       
  92 H92           14.5160   -21.1947    -0.7423 H       
  93 H93           14.3924   -19.9597     0.5381 H       
  94 H94           13.7177   -23.1403     0.0413 H       
  95 H95            9.8344   -23.4008     2.1188 H       
  96 H96            9.6686   -21.0352     2.0774 H       
  97 H97           11.3687   -19.4622     2.9083 H       
  98 H98           12.8915   -20.3786     2.8110 H       
  99 H99           12.6803   -18.8984     1.8453 H       
@<TRIPOS>BOND
   1    1    2 1
   2    1   49 1
   3    1   50 1
   4    1   51 1
   5    2    3 1
   6    3    4 2
   7    3    5 1
   8    5    6 1
   9    5   52 1
  10    5   53 1
  11    6    7 1
  12    7    8 1
  13    7   54 1
  14    7   55 1
  15    8    9 1
  16    8   56 1
  17    8   57 1
  18    9   10 1
  19   10   11 1
  20   10   58 1
  21   10   59 1
  22   11   12 1
  23   11   60 1
  24   11   61 1
  25   12   13 1
  26   13   14 1
  27   13   62 1
  28   13   63 1
  29   14   15 1
  30   14   64 1
  31   14   65 1
  32   15   16 am
  33   15   66 1
  34   16   17 2
  35   16   18 am
  36   18   19 1
  37   18   67 1
  38   19   20 1
  39   19   68 1
  40   19   69 1
  41   20   21 1
  42   20   70 1
  43   20   71 1
  44   21   22 1
  45   22   23 1
  46   22   72 1
  47   22   73 1
  48   23   24 2
  49   23   25 1
  50   25   26 1
  51   25   31 1
  52   25   27 1
  53   26   74 1
  54   27   28 1
  55   27   29 1
  56   27   75 1
  57   28   76 1
  58   28   77 1
  59   28   78 1
  60   29   30 1
  61   29   79 1
  62   29   80 1
  63   30   31 1
  64   30   37 1
  65   30   81 1
  66   31   32 1
  67   31   33 1
  68   32   82 1
  69   32   83 1
  70   32   84 1
  71   33   34 1
  72   33   85 1
  73   33   86 1
  74   34   35 1
  75   34   36 1
  76   34   87 1
  77   35   88 1
  78   36   46 1
  79   36   48 1
  80   36   37 1
  81   37   38 1
  82   37   89 1
  83   38   39 1
  84   38   90 1
  85   38   91 1
  86   39   40 1
  87   39   92 1
  88   39   93 1
  89   40   41 2
  90   40   46 1
  91   41   42 1
  92   41   94 1
  93   42   43 2
  94   42   44 1
  95   44   45 2
  96   44   95 1
  97   45   46 1
  98   45   96 1
  99   46   47 1
 100   47   97 1
 101   47   98 1
 102   47   99 1

#	End of record

