#	Name: ASD02198057
#	Creating user name:	WinNT
#	Creation time:	15. 06. 2019 20:18

#	Modifying user name:	WinNT
#	Modification time:	15. 06. 2019 20:18

#	Program:	/corina/corina34_cracker 3.40 0067  02.08.2006

@<TRIPOS>MOLECULE
ASD02198057
  57   60    0    0    0
SMALL
NO_CHARGES


@<TRIPOS>ATOM
   1 C1            -0.0134     1.3783     0.0917 C.2     
   2 C2             0.0023     0.0013     0.0295 C.2     
   3 C3            -1.1891    -0.7932     0.0149 C.1     
   4 S4             1.5723     2.0047     0.0907 S.3     
   5 C5             2.2772     0.3983     0.0056 C.2     
   6 C6             1.2825    -0.5479    -0.0187 C.2     
   7 C7             3.6589     0.1215    -0.0318 C.2     
   8 C8             4.6310     1.2280    -0.1456 C.2     
   9 O9             4.0517    -1.0314     0.0298 O.2     
  10 N10            1.5268    -1.9115    -0.0844 N.pl3   
  11 N11           -1.1550     2.1443     0.1418 N.pl3   
  12 N12           -2.1341    -1.4235     0.0034 N.1     
  13 C13           -1.0552     3.6045     0.2061 C.3     
  14 C14           -2.4594     4.2101     0.2526 C.3     
  15 C15            4.3275     2.5927    -0.3461 C.2     
  16 N16            5.4509     3.2555    -0.3921 N.2     
  17 N17            6.5127     2.3592    -0.2257 N.pl3   
  18 C18            6.0042     1.1217    -0.0699 C.2     
  19 C19            7.8738     2.6933    -0.2175 C.ar    
  20 C20            8.3451     3.7114    -1.0355 C.ar    
  21 C21            6.7909    -0.1464     0.1395 C.3     
  22 C22           -3.6735     6.3006     0.1250 C.3     
  23 N23           -2.3593     5.6743     0.3171 N.3     
  24 C24            8.7527     2.0105     0.6127 C.ar    
  25 C25           10.0935     2.3420     0.6185 C.ar    
  26 C26           10.5608     3.3529    -0.2012 C.ar    
  27 C27            9.6870     4.0382    -1.0253 C.ar    
  28 C28           -3.5569     7.8110     0.3424 C.3     
  29 C29           -2.5454     8.3882    -0.6517 C.3     
  30 C30           -1.1983     7.6852    -0.4634 C.3     
  31 C31           -1.3832     6.1785    -0.6574 C.3     
  32 H32            2.4390    -2.2398    -0.1159 H       
  33 H33            0.7855    -2.5369    -0.0989 H       
  34 H34           -2.0261     1.7176     0.1346 H       
  35 H35           -0.5056     3.8919     1.1024 H       
  36 H36           -0.5300     3.9719    -0.6756 H       
  37 H37           -3.0090     3.9227    -0.6437 H       
  38 H38           -2.9845     3.8427     1.1343 H       
  39 H39            3.3381     3.0143    -0.4447 H       
  40 H40            7.6632     4.2470    -1.6794 H       
  41 H41            6.9419    -0.3083     1.2068 H       
  42 H42            6.2417    -0.9885    -0.2816 H       
  43 H43            7.7583    -0.0598    -0.3552 H       
  44 H44           -4.0241     6.1056    -0.8885 H       
  45 H45           -4.3823     5.8843     0.8408 H       
  46 H46            8.3882     1.2214     1.2536 H       
  47 H47           10.7776     1.8113     1.2641 H       
  48 H48           11.6095     3.6107    -0.1944 H       
  49 H49           10.0550     4.8273    -1.6644 H       
  50 H50           -4.5293     8.2775     0.1844 H       
  51 H51           -3.2196     8.0072     1.3601 H       
  52 H52           -2.9016     8.2265    -1.6691 H       
  53 H53           -2.4270     9.4567    -0.4718 H       
  54 H54           -0.4855     8.0618    -1.1970 H       
  55 H55           -0.8238     7.8794     0.5417 H       
  56 H56           -0.4286     5.6734    -0.5099 H       
  57 H57           -1.7446     5.9840    -1.6672 H       
@<TRIPOS>BOND
   1    1    2 2
   2    1    4 1
   3    1   11 1
   4    2    3 1
   5    2    6 1
   6    3   12 3
   7    4    5 1
   8    5    6 2
   9    5    7 1
  10    6   10 1
  11    7    8 1
  12    7    9 2
  13    8   15 1
  14    8   18 2
  15   10   32 1
  16   10   33 1
  17   11   13 1
  18   11   34 1
  19   13   14 1
  20   13   35 1
  21   13   36 1
  22   14   23 1
  23   14   37 1
  24   14   38 1
  25   15   16 2
  26   15   39 1
  27   16   17 1
  28   17   18 1
  29   17   19 1
  30   18   21 1
  31   19   20 ar
  32   19   24 ar
  33   20   27 ar
  34   20   40 1
  35   21   41 1
  36   21   42 1
  37   21   43 1
  38   22   23 1
  39   22   28 1
  40   22   44 1
  41   22   45 1
  42   23   31 1
  43   24   25 ar
  44   24   46 1
  45   25   26 ar
  46   25   47 1
  47   26   27 ar
  48   26   48 1
  49   27   49 1
  50   28   29 1
  51   28   50 1
  52   28   51 1
  53   29   30 1
  54   29   52 1
  55   29   53 1
  56   30   31 1
  57   30   54 1
  58   30   55 1
  59   31   56 1
  60   31   57 1

#	End of record

