#	Name: ASD04590245
#	Creating user name:	WinNT
#	Creation time:	15. 06. 2019 20:50

#	Modifying user name:	WinNT
#	Modification time:	15. 06. 2019 20:50

#	Program:	/corina/corina34_cracker 3.40 0067  02.08.2006

@<TRIPOS>MOLECULE
ASD04590245
  71   74    0    0    0
SMALL
NO_CHARGES


@<TRIPOS>ATOM
   1 N1            -0.0153     1.2802     0.0091 N.pl3   
   2 N2             0.0021    -0.0041     0.0020 N.2     
   3 C3             1.2456    -0.4440    -0.0122 C.2     
   4 C4             2.0903     0.6961    -0.0142 C.2     
   5 C5             1.2524     1.7667    -0.0004 C.2     
   6 C6             1.6765    -1.8546    -0.0239 C.2     
   7 N7             0.7572    -2.8401    -0.0209 N.am    
   8 N8             3.4931     0.7146    -0.0271 N.am    
   9 O9             2.8612    -2.1283    -0.0362 O.2     
  10 C10            4.1516     1.8906    -0.0271 C.2     
  11 C11            5.6250     1.9101    -0.0406 C.2     
  12 O12            3.5296     2.9358    -0.0159 O.2     
  13 C13            1.1852    -4.2412    -0.0325 C.3     
  14 C14            1.9146    -6.1633     1.3873 C.3     
  15 C15            1.4676    -4.7001     1.3995 C.3     
  16 C16            6.5291     0.7508    -0.0555 C.2     
  17 C17            0.0784    -5.1076    -0.6368 C.3     
  18 C18            0.5254    -6.5708    -0.6490 C.3     
  19 C19            0.8077    -7.0297     0.7830 C.3     
  20 C20            1.2547    -8.4929     0.7709 C.3     
  21 C21            2.5262    -8.6308    -0.0689 C.3     
  22 C22            1.5371    -8.9518     2.2029 C.3     
  23 C23            0.1479    -9.3593     0.1666 C.3     
  24 C24            6.4352     3.0077    -0.0480 C.2     
  25 O25            7.7061     2.5937    -0.0605 O.3     
  26 C26            7.7732     1.2533    -0.0650 C.2     
  27 C27           10.7938    -0.3976    -1.5260 C.3     
  28 N28            9.4440     0.1820    -1.4669 N.3     
  29 C29           11.1470    -0.7073    -2.9831 C.3     
  30 O30           11.0369     0.4886    -3.7597 O.3     
  31 C31            9.7350     1.0795    -3.7252 C.3     
  32 C32            9.3674     1.4074    -2.2756 C.3     
  33 C33            5.9755     4.4428    -0.0437 C.3     
  34 C34            9.0431     0.4420    -0.0778 C.3     
  35 H35           -0.8184     1.8243     0.0160 H       
  36 H36            1.5406     2.8075     0.0024 H       
  37 H37           -0.1879    -2.6218    -0.0111 H       
  38 H38            3.9891    -0.1189    -0.0359 H       
  39 H39            2.0910    -4.3394    -0.6308 H       
  40 H40            2.8204    -6.2615     0.7890 H       
  41 H41            2.1157    -6.4902     2.4075 H       
  42 H42            2.2561    -4.0828     1.8300 H       
  43 H43            0.5617    -4.6018     1.9977 H       
  44 H44            6.2490    -0.2923    -0.0578 H       
  45 H45           -0.8274    -5.0093    -0.0386 H       
  46 H46           -0.1228    -4.7807    -1.6570 H       
  47 H47           -0.2631    -7.1880    -1.0795 H       
  48 H48            1.4312    -6.6690    -1.2473 H       
  49 H49           -0.0981    -6.9314     1.3813 H       
  50 H50            3.3147    -8.0135     0.3616 H       
  51 H51            2.8447    -9.6732    -0.0776 H       
  52 H52            2.3250    -8.3038    -1.0891 H       
  53 H53            0.6313    -8.8535     2.8012 H       
  54 H54            1.8556    -9.9942     2.1942 H       
  55 H55            2.3256    -8.3345     2.6334 H       
  56 H56           -0.0532    -9.0324    -0.8536 H       
  57 H57            0.4664   -10.4017     0.1579 H       
  58 H58           -0.7579    -9.2610     0.7649 H       
  59 H59           11.5134     0.3136    -1.1203 H       
  60 H60           10.8210    -1.3172    -0.9415 H       
  61 H61           12.1684    -1.0840    -3.0379 H       
  62 H62           10.4600    -1.4586    -3.3724 H       
  63 H63            9.7351     1.9951    -4.3166 H       
  64 H64            9.0068     0.3802    -4.1360 H       
  65 H65            8.3533     1.8053    -2.2383 H       
  66 H66           10.0642     2.1474    -1.8819 H       
  67 H67            5.8741     4.7888     0.9850 H       
  68 H68            6.7074     5.0604    -0.5642 H       
  69 H69            5.0124     4.5174    -0.5487 H       
  70 H70            9.8327     0.9951     0.4308 H       
  71 H71            8.8745    -0.5049     0.4350 H       
@<TRIPOS>BOND
   1    1    2 1
   2    1    5 1
   3    1   35 1
   4    2    3 2
   5    3    4 1
   6    3    6 1
   7    4    5 2
   8    4    8 1
   9    5   36 1
  10    6    7 am
  11    6    9 2
  12    7   13 1
  13    7   37 1
  14    8   10 am
  15    8   38 1
  16   10   12 2
  17   10   11 1
  18   11   16 1
  19   11   24 2
  20   13   17 1
  21   13   15 1
  22   13   39 1
  23   14   15 1
  24   14   19 1
  25   14   40 1
  26   14   41 1
  27   15   42 1
  28   15   43 1
  29   16   26 2
  30   16   44 1
  31   17   18 1
  32   17   45 1
  33   17   46 1
  34   18   19 1
  35   18   47 1
  36   18   48 1
  37   19   20 1
  38   19   49 1
  39   20   21 1
  40   20   22 1
  41   20   23 1
  42   21   50 1
  43   21   51 1
  44   21   52 1
  45   22   53 1
  46   22   54 1
  47   22   55 1
  48   23   56 1
  49   23   57 1
  50   23   58 1
  51   24   25 1
  52   24   33 1
  53   25   26 1
  54   26   34 1
  55   27   28 1
  56   27   29 1
  57   27   59 1
  58   27   60 1
  59   28   32 1
  60   28   34 1
  61   29   30 1
  62   29   61 1
  63   29   62 1
  64   30   31 1
  65   31   32 1
  66   31   63 1
  67   31   64 1
  68   32   65 1
  69   32   66 1
  70   33   67 1
  71   33   68 1
  72   33   69 1
  73   34   70 1
  74   34   71 1

#	End of record

