#	Name: ASD03430028
#	Creating user name:	WinNT
#	Creation time:	15. 06. 2019 20:40

#	Modifying user name:	WinNT
#	Modification time:	15. 06. 2019 20:40

#	Program:	/corina/corina34_cracker 3.40 0067  02.08.2006

@<TRIPOS>MOLECULE
ASD03430028
  51   56    0    0    0
SMALL
NO_CHARGES


@<TRIPOS>ATOM
   1 C1            -0.0167     1.3821     0.0096 C.ar    
   2 C2             0.0021    -0.0041     0.0020 C.ar    
   3 C3             1.2028    -0.6821    -0.0143 C.ar    
   4 C4             2.4085     0.0129    -0.0140 C.ar    
   5 C5             2.3860     1.4039    -0.0113 C.ar    
   6 C6             1.1815     2.0868     0.0020 C.ar    
   7 O7             3.4714    -0.8417    -0.0021 O.3     
   8 C8             1.5514    -2.1457    -0.0466 C.3     
   9 C9             3.0373    -2.1463    -0.4313 C.3     
  10 C10            0.4279    -3.8642     1.0086 C.ar    
  11 C11            1.3146    -2.8190     1.2729 C.ar    
  12 C12            0.7193    -2.9094    -1.0362 C.2     
  13 N13            0.1026    -3.8884    -0.3452 N.am    
  14 O14            0.6209    -2.6881    -2.2245 O.2     
  15 C15            1.7759    -2.5954     2.5458 C.ar    
  16 C16            1.3586    -3.4209     3.5946 C.ar    
  17 C17            0.4723    -4.4695     3.3352 C.ar    
  18 C18            0.0138    -4.6866     2.0572 C.ar    
  19 C19           -0.8054    -4.8666    -0.9492 C.3     
  20 O20           -1.2112     2.0357     0.0189 O.3     
  21 O21            1.1868     3.4484     0.0118 O.3     
  22 C22           -2.2152    -4.3358    -0.9079 C.ar    
  23 C23           -2.7272    -3.6713    -2.0060 C.ar    
  24 C24           -4.0256    -3.1868    -1.9578 C.ar    
  25 C25           -4.7631    -3.3900    -0.8017 C.ar    
  26 C26           -4.1839    -4.0640     0.2570 C.ar    
  27 N27           -2.9479    -4.5157     0.1738 N.ar    
  28 C28           -1.1863     3.4159     0.3994 C.3     
  29 C29           -0.0356     4.0996    -0.3504 C.3     
  30 C30            1.8513    -3.1865     4.9661 C.2     
  31 N31            1.4461    -3.9850     5.9734 N.am    
  32 O32            2.6228    -2.2731     5.1870 O.2     
  33 H33           -0.9269    -0.5549     0.0093 H       
  34 H34            3.3147     1.9551    -0.0191 H       
  35 H35            3.1582    -2.2594    -1.5087 H       
  36 H36            3.5754    -2.9287     0.1039 H       
  37 H37            2.4610    -1.7827     2.7374 H       
  38 H38            0.1468    -5.1113     4.1405 H       
  39 H39           -0.6715    -5.4986     1.8637 H       
  40 H40           -0.5135    -5.0423    -1.9846 H       
  41 H41           -0.7531    -5.8027    -0.3932 H       
  42 H42           -2.1236    -3.5307    -2.8905 H       
  43 H43           -4.4520    -2.6633    -2.8007 H       
  44 H44           -5.7773    -3.0259    -0.7290 H       
  45 H45           -4.7517    -4.2261     1.1614 H       
  46 H46           -2.1314     3.8882     0.1315 H       
  47 H47           -1.0252     3.4981     1.4743 H       
  48 H48            0.0112     5.1521    -0.0709 H       
  49 H49           -0.1933     4.0108    -1.4253 H       
  50 H50            0.8306    -4.7137     5.7971 H       
  51 H51            1.7699    -3.8309     6.8747 H       
@<TRIPOS>BOND
   1    1    2 ar
   2    1    6 ar
   3    1   20 1
   4    2    3 ar
   5    2   33 1
   6    3    4 ar
   7    3    8 1
   8    4    5 ar
   9    4    7 1
  10    5    6 ar
  11    5   34 1
  12    6   21 1
  13    7    9 1
  14    8    9 1
  15    8   11 1
  16    8   12 1
  17    9   35 1
  18    9   36 1
  19   10   11 ar
  20   10   13 1
  21   10   18 ar
  22   11   15 ar
  23   12   13 am
  24   12   14 2
  25   13   19 1
  26   15   16 ar
  27   15   37 1
  28   16   17 ar
  29   16   30 1
  30   17   18 ar
  31   17   38 1
  32   18   39 1
  33   19   22 1
  34   19   40 1
  35   19   41 1
  36   20   28 1
  37   21   29 1
  38   22   23 ar
  39   22   27 ar
  40   23   24 ar
  41   23   42 1
  42   24   25 ar
  43   24   43 1
  44   25   26 ar
  45   25   44 1
  46   26   27 ar
  47   26   45 1
  48   28   29 1
  49   28   46 1
  50   28   47 1
  51   29   48 1
  52   29   49 1
  53   30   31 am
  54   30   32 2
  55   31   50 1
  56   31   51 1

#	End of record

