#	Name: ASD01810743
#	Creating user name:	WinNT
#	Creation time:	15. 06. 2019 19:25

#	Modifying user name:	WinNT
#	Modification time:	15. 06. 2019 19:25

#	Program:	/corina/corina34_cracker 3.40 0067  02.08.2006

@<TRIPOS>MOLECULE
ASD01810743
  56   59    0    0    0
SMALL
NO_CHARGES


@<TRIPOS>ATOM
   1 C1             7.0308     8.9346    -0.3598 C.1     
   2 C2             5.6368     8.6182    -0.2751 C.ar    
   3 C3             5.2241     7.2877    -0.1804 C.ar    
   4 C4             3.8795     6.9900    -0.0991 C.ar    
   5 C5             2.9407     8.0064    -0.1118 C.ar    
   6 C6             3.3427     9.3270    -0.2058 C.ar    
   7 C7             4.6843     9.6392    -0.2810 C.ar    
   8 N8             8.1367     9.1856    -0.4271 N.1     
   9 N9            -1.2763     8.3285     0.0701 N.am    
  10 C10           -0.6078     7.9646     1.3268 C.3     
  11 C11            0.8753     8.3335     1.2212 C.3     
  12 C12            1.4737     7.6734    -0.0231 C.3     
  13 C13            0.7569     8.1914    -1.2721 C.3     
  14 C14           -0.7275     7.8209    -1.1948 C.3     
  15 C15           -2.3754     9.1085     0.0778 C.2     
  16 C16           -2.9953     9.4997     1.3620 C.ar    
  17 C17           -3.4571    10.8016     1.5467 C.ar    
  18 C18           -4.0401    11.1616     2.7589 C.ar    
  19 C19           -4.1585    10.2176     3.7810 C.ar    
  20 C20           -3.6990     8.9293     3.5918 C.ar    
  21 C21           -3.1247     8.5640     2.3904 C.ar    
  22 O22           -2.8570     9.4905    -0.9708 O.2     
  23 C23           -4.7888    10.6058     5.0936 C.3     
  24 N24           -5.4014    14.2538     3.8769 N.2     
  25 N25           -5.1001    13.0163     4.0502 N.2     
  26 C26           -4.5327    12.5416     2.9637 C.2     
  27 N27           -4.4835    13.5665     2.0580 N.pl3   
  28 C28           -5.0469    14.6378     2.6799 C.2     
  29 C29           -5.2291    16.0145     2.0946 C.3     
  30 O30           -4.7141    16.0375     0.7619 O.3     
  31 C31           -4.8384    17.3043     0.1124 C.3     
  32 H32            5.9558     6.4934    -0.1712 H       
  33 H33            3.5589     5.9613    -0.0259 H       
  34 H34            2.6046    10.1154    -0.2155 H       
  35 H35            4.9969    10.6707    -0.3495 H       
  36 H36           -1.0621     8.5104     2.1537 H       
  37 H37           -0.7064     6.8923     1.4960 H       
  38 H38            0.9762     9.4160     1.1429 H       
  39 H39            1.4018     7.9818     2.1084 H       
  40 H40            1.3500     6.5925     0.0442 H       
  41 H41            0.8589     9.2752    -1.3269 H       
  42 H42            1.1991     7.7386    -2.1595 H       
  43 H43           -0.8359     6.7369    -1.2312 H       
  44 H44           -1.2608     8.2719    -2.0316 H       
  45 H45           -3.3629    11.5281     0.7532 H       
  46 H46           -3.7927     8.2032     4.3857 H       
  47 H47           -2.7710     7.5537     2.2473 H       
  48 H48           -5.8626    10.4240     5.0489 H       
  49 H49           -4.3526    10.0109     5.8961 H       
  50 H50           -4.6070    11.6633     5.2853 H       
  51 H51           -4.1213    13.5358     1.1588 H       
  52 H52           -6.2899    16.2650     2.0785 H       
  53 H53           -4.6931    16.7422     2.7039 H       
  54 H54           -5.8910    17.5815     0.0553 H       
  55 H55           -4.2943    18.0588     0.6806 H       
  56 H56           -4.4247    17.2388    -0.8939 H       
@<TRIPOS>BOND
   1    1    2 1
   2    1    8 3
   3    2    3 ar
   4    2    7 ar
   5    3    4 ar
   6    3   32 1
   7    4    5 ar
   8    4   33 1
   9    5    6 ar
  10    5   12 1
  11    6    7 ar
  12    6   34 1
  13    7   35 1
  14    9   10 1
  15    9   14 1
  16    9   15 am
  17   10   11 1
  18   10   36 1
  19   10   37 1
  20   11   12 1
  21   11   38 1
  22   11   39 1
  23   12   13 1
  24   12   40 1
  25   13   14 1
  26   13   41 1
  27   13   42 1
  28   14   43 1
  29   14   44 1
  30   15   16 1
  31   15   22 2
  32   16   17 ar
  33   16   21 ar
  34   17   18 ar
  35   17   45 1
  36   18   19 ar
  37   18   26 1
  38   19   20 ar
  39   19   23 1
  40   20   21 ar
  41   20   46 1
  42   21   47 1
  43   23   48 1
  44   23   49 1
  45   23   50 1
  46   24   25 1
  47   24   28 2
  48   25   26 2
  49   26   27 1
  50   27   28 1
  51   27   51 1
  52   28   29 1
  53   29   30 1
  54   29   52 1
  55   29   53 1
  56   30   31 1
  57   31   54 1
  58   31   55 1
  59   31   56 1

#	End of record

