#	Name: ASD00843844
#	Creating user name:	WinNT
#	Creation time:	15. 06. 2019 18:47

#	Modifying user name:	WinNT
#	Modification time:	15. 06. 2019 18:47

#	Program:	/corina/corina34_cracker 3.40 0067  02.08.2006

@<TRIPOS>MOLECULE
ASD00843844
  86   91    0    0    0
SMALL
NO_CHARGES


@<TRIPOS>ATOM
   1 N1            -0.0159     1.3183     0.0093 N.ar    
   2 C2             0.0021    -0.0041     0.0020 C.ar    
   3 C3             1.2069    -0.6955    -0.0132 C.ar    
   4 C4             2.3925     0.0180    -0.0207 C.ar    
   5 C5             2.3308     1.4049    -0.0127 C.ar    
   6 C6             1.0980     2.0259     0.0025 C.ar    
   7 C7             1.2224    -2.2024    -0.0209 C.3     
   8 C8             0.4764    -2.7346    -1.2259 C.2     
   9 O9             2.5879    -2.6961    -0.0089 O.3     
  10 C10            3.3819    -2.3225    -1.0300 C.2     
  11 N11            4.6605    -2.7459    -1.0791 N.am    
  12 O12            2.9459    -1.6036    -1.9072 O.2     
  13 C13            5.5450    -2.3497    -2.1855 C.3     
  14 C14            6.8416    -1.7863    -1.5942 C.3     
  15 N15            7.4154    -2.7640    -0.6600 N.3     
  16 C16            6.5183    -3.0033     0.4784 C.3     
  17 C17            5.2101    -3.6115    -0.0246 C.3     
  18 N18            8.7309    -2.3420    -0.2069 N.3     
  19 C19            9.3049    -3.3200     0.7277 C.3     
  20 C20           10.7180    -2.8802     1.1181 C.3     
  21 N21           10.6616    -1.5441     1.7274 N.3     
  22 C22           10.0876    -0.5661     0.7927 C.3     
  23 C23            8.6746    -1.0058     0.4023 C.3     
  24 H24           10.1444    -1.5632     2.5935 H       
  25 O25            0.7568    -2.5406    -2.3898 O.2     
  26 N26           -0.5539    -3.4626    -0.7644 N.am    
  27 C27            0.4487    -2.7464     1.1585 C.ar    
  28 C28           -0.6011    -3.4915     0.6265 C.ar    
  29 C29            0.6132    -2.6250     2.5150 C.ar    
  30 C30           -0.2835    -3.2566     3.3842 C.ar    
  31 C31           -1.3412    -4.0072     2.8566 C.ar    
  32 C32           -1.4949    -4.1227     1.4917 C.ar    
  33 F33           -2.2122    -4.6208     3.6873 F       
  34 C34           -1.0164    -5.8557    -2.0426 C.ar    
  35 C35            0.1625    -6.0192    -2.7558 C.ar    
  36 C36           -1.6951    -6.9606    -1.5646 C.ar    
  37 C37           -1.2017    -8.2302    -1.7951 C.ar    
  38 C38           -0.0228    -8.3991    -2.5079 C.ar    
  39 C39            0.6595    -7.2925    -2.9888 C.ar    
  40 O40            0.4618    -9.6483    -2.7347 O.3     
  41 O41            0.8292    -4.9324    -3.2260 O.3     
  42 C42            2.0359    -5.1754    -3.9517 C.3     
  43 C43           -0.2934   -10.7422    -2.2104 C.3     
  44 O44           -1.1673    -0.6919     0.0099 O.3     
  45 C45           -2.3720     0.0766     0.0260 C.3     
  46 C46           -3.5777    -0.8652     0.0330 C.3     
  47 F47           -3.5507    -1.6659    -1.1140 F       
  48 F48           -3.5280    -1.6782     1.1704 F       
  49 S49           -1.6449    -4.2377    -1.7399 S.o2    
  50 O50           -2.8262    -4.4040    -0.9678 O.2     
  51 O51           -1.6212    -3.5580    -2.9876 O.2     
  52 C52           -0.1204    -3.1366     4.8018 C.1     
  53 N53            0.0090    -3.0413     5.9263 N.1     
  54 H54            3.3442    -0.4925    -0.0322 H       
  55 H55            3.2375     1.9916    -0.0178 H       
  56 H56            1.0444     3.1046     0.0084 H       
  57 H57            5.7714    -3.2192    -2.8026 H       
  58 H58            5.0558    -1.5857    -2.7897 H       
  59 H59            7.5522    -1.5900    -2.3971 H       
  60 H60            6.6265    -0.8589    -1.0635 H       
  61 H61            6.9944    -3.6895     1.1788 H       
  62 H62            6.3077    -2.0589     0.9803 H       
  63 H63            4.4997    -3.6844     0.7988 H       
  64 H64            5.4015    -4.6028    -0.4356 H       
  65 H65            8.6825    -3.3784     1.6206 H       
  66 H66            9.3477    -4.2985     0.2493 H       
  67 H67           11.1347    -3.5890     1.8337 H       
  68 H68           11.3475    -2.8482     0.2289 H       
  69 H69           10.0448     0.4124     1.2711 H       
  70 H70           10.7100    -0.5077    -0.1002 H       
  71 H71            8.2578    -0.2971    -0.3133 H       
  72 H72            8.0450    -1.0379     1.2916 H       
  73 H73            1.4328    -2.0439     2.9111 H       
  74 H74           -2.3125    -4.7030     1.0901 H       
  75 H75           -2.6126    -6.8313    -1.0097 H       
  76 H76           -1.7335    -9.0921    -1.4199 H       
  77 H77            1.5768    -7.4218    -3.5440 H       
  78 H78            2.7454    -5.7000    -3.3118 H       
  79 H79            1.8165    -5.7859    -4.8277 H       
  80 H80            2.4664    -4.2257    -4.2694 H       
  81 H81            0.2026   -11.6797    -2.4616 H       
  82 H82           -0.3650   -10.6481    -1.1268 H       
  83 H83           -1.2940   -10.7333    -2.6428 H       
  84 H84           -2.3931     0.7004     0.9196 H       
  85 H85           -2.4108     0.7099    -0.8602 H       
  86 H86           -4.4966    -0.2790     0.0452 H       
@<TRIPOS>BOND
   1    1    2 ar
   2    1    6 ar
   3    2    3 ar
   4    2   44 1
   5    3    4 ar
   6    3    7 1
   7    4    5 ar
   8    4   54 1
   9    5    6 ar
  10    5   55 1
  11    6   56 1
  12    7    8 1
  13    7    9 1
  14    7   27 1
  15    8   25 2
  16    8   26 am
  17    9   10 1
  18   10   11 am
  19   10   12 2
  20   11   13 1
  21   11   17 1
  22   13   14 1
  23   13   57 1
  24   13   58 1
  25   14   15 1
  26   14   59 1
  27   14   60 1
  28   15   16 1
  29   15   18 1
  30   16   17 1
  31   16   61 1
  32   16   62 1
  33   17   63 1
  34   17   64 1
  35   18   19 1
  36   18   23 1
  37   19   20 1
  38   19   65 1
  39   19   66 1
  40   20   21 1
  41   20   67 1
  42   20   68 1
  43   21   22 1
  44   21   24 1
  45   22   23 1
  46   22   69 1
  47   22   70 1
  48   23   71 1
  49   23   72 1
  50   26   49 am
  51   26   28 1
  52   27   28 ar
  53   27   29 ar
  54   28   32 ar
  55   29   30 ar
  56   29   73 1
  57   30   31 ar
  58   30   52 1
  59   31   32 ar
  60   31   33 1
  61   32   74 1
  62   34   35 ar
  63   34   36 ar
  64   34   49 1
  65   35   41 1
  66   35   39 ar
  67   36   37 ar
  68   36   75 1
  69   37   38 ar
  70   37   76 1
  71   38   39 ar
  72   38   40 1
  73   39   77 1
  74   40   43 1
  75   41   42 1
  76   42   78 1
  77   42   79 1
  78   42   80 1
  79   43   81 1
  80   43   82 1
  81   43   83 1
  82   44   45 1
  83   45   46 1
  84   45   84 1
  85   45   85 1
  86   46   47 1
  87   46   48 1
  88   46   86 1
  89   49   50 2
  90   49   51 2
  91   52   53 3

#	End of record

