#	Name: ASD08150923
#	Creating user name:	WinNT
#	Creation time:	15. 06. 2019 21:16

#	Modifying user name:	WinNT
#	Modification time:	15. 06. 2019 21:16

#	Program:	/corina/corina34_cracker 3.40 0067  02.08.2006

@<TRIPOS>MOLECULE
ASD08150923
  62   67    0    0    0
SMALL
NO_CHARGES


@<TRIPOS>ATOM
   1 N1             1.2853     1.5590    -0.4802 N.3     
   2 C2             0.1159     1.4881    -1.3656 C.3     
   3 C3             0.3246     2.4170    -2.5638 C.3     
   4 C4             1.5867     1.9918    -3.3193 C.3     
   5 C5             2.7814     2.0278    -2.3623 C.3     
   6 C6             2.5015     1.1102    -1.1699 C.3     
   7 O7             1.4179     0.6651    -3.8226 O.3     
   8 C8             1.8309     2.9393    -4.4654 C.ar    
   9 C9             2.4588     2.4899    -5.6120 C.ar    
  10 C10            2.6828     3.3591    -6.6633 C.ar    
  11 C11            2.2784     4.6776    -6.5683 C.ar    
  12 C12            1.6496     5.1267    -5.4221 C.ar    
  13 C13            1.4218     4.2565    -4.3725 C.ar    
  14 N14            0.7908    -1.2004    -0.5527 N.ar    
  15 C15            0.5625    -2.4894    -0.6216 C.ar    
  16 C16            0.3452    -3.2569     0.5208 C.ar    
  17 C17            0.3677    -2.6671     1.7524 C.ar    
  18 C18            0.6136    -1.2827     1.8217 C.ar    
  19 C19            0.6516    -0.6089     3.0540 C.ar    
  20 C20            0.8927     0.7322     3.0877 C.ar    
  21 C21            1.1035     1.4512     1.9150 C.ar    
  22 C22            1.0733     0.8257     0.6877 C.ar    
  23 C23            0.8258    -0.5628     0.6206 C.ar    
  24 C24            1.3669     2.9332     1.9883 C.3     
  25 C25            0.0760     3.6963     1.6844 C.3     
  26 N26            1.8343     3.2802     3.3327 N.pl3   
  27 N27            3.0624     3.9488     6.0704 N.2     
  28 C28            3.9715     4.1045     6.9886 C.2     
  29 N29            5.1982     3.7824     6.4888 N.pl3   
  30 C30            5.0236     3.4062     5.1810 C.ar    
  31 N31            5.8293     2.9965     4.2068 N.ar    
  32 C32            5.3476     2.6988     3.0183 C.ar    
  33 N33            4.0618     2.7891     2.7317 N.ar    
  34 C34            3.1801     3.1894     3.6422 C.ar    
  35 C35            3.6462     3.5182     4.9263 C.ar    
  36 Cl36           0.3915    -1.4828     4.5312 Cl      
  37 H37           -0.0116     0.4644    -1.7176 H       
  38 H38           -0.7741     1.7970    -0.8173 H       
  39 H39           -0.5367     2.3524    -3.2287 H       
  40 H40            0.4384     3.4429    -2.2135 H       
  41 H41            3.6755     1.6851    -2.8832 H       
  42 H42            2.9339     3.0476    -2.0088 H       
  43 H43            3.3443     1.1446    -0.4795 H       
  44 H44            2.3628     0.0883    -1.5228 H       
  45 H45            2.1810     0.3304    -4.3133 H       
  46 H46            2.7748     1.4599    -5.6863 H       
  47 H47            3.1741     3.0082    -7.5588 H       
  48 H48            2.4540     5.3568    -7.3894 H       
  49 H49            1.3339     6.1569    -5.3477 H       
  50 H50            0.9272     4.6065    -3.4784 H       
  51 H51            0.5419    -2.9689    -1.5890 H       
  52 H52            0.1589    -4.3170     0.4324 H       
  53 H53            0.2010    -3.2466     2.6484 H       
  54 H54            0.9206     1.2442     4.0382 H       
  55 H55            2.1292     3.2033     1.2576 H       
  56 H56           -0.2434     3.4785     0.6653 H       
  57 H57           -0.7017     3.3873     2.3828 H       
  58 H58            0.2536     4.7667     1.7886 H       
  59 H59            1.2006     3.5737     4.0058 H       
  60 H60            3.7821     4.4400     7.9975 H       
  61 H61            6.0401     3.8137     6.9695 H       
  62 H62            6.0297     2.3688     2.2488 H       
@<TRIPOS>BOND
   1    1    2 1
   2    1    6 1
   3    1   22 1
   4    2    3 1
   5    2   37 1
   6    2   38 1
   7    3    4 1
   8    3   39 1
   9    3   40 1
  10    4    5 1
  11    4    7 1
  12    4    8 1
  13    5    6 1
  14    5   41 1
  15    5   42 1
  16    6   43 1
  17    6   44 1
  18    7   45 1
  19    8    9 ar
  20    8   13 ar
  21    9   10 ar
  22    9   46 1
  23   10   11 ar
  24   10   47 1
  25   11   12 ar
  26   11   48 1
  27   12   13 ar
  28   12   49 1
  29   13   50 1
  30   14   15 ar
  31   14   23 ar
  32   15   16 ar
  33   15   51 1
  34   16   17 ar
  35   16   52 1
  36   17   18 ar
  37   17   53 1
  38   18   19 ar
  39   18   23 ar
  40   19   20 ar
  41   19   36 1
  42   20   21 ar
  43   20   54 1
  44   21   22 ar
  45   21   24 1
  46   22   23 ar
  47   24   25 1
  48   24   26 1
  49   24   55 1
  50   25   56 1
  51   25   57 1
  52   25   58 1
  53   26   34 1
  54   26   59 1
  55   27   28 2
  56   27   35 1
  57   28   29 1
  58   28   60 1
  59   29   30 1
  60   29   61 1
  61   30   31 ar
  62   30   35 ar
  63   31   32 ar
  64   32   33 ar
  65   32   62 1
  66   33   34 ar
  67   34   35 ar

#	End of record

