#	Name: ASD06620008
#	Creating user name:	WinNT
#	Creation time:	15. 06. 2019 21:07

#	Modifying user name:	WinNT
#	Modification time:	15. 06. 2019 21:07

#	Program:	/corina/corina34_cracker 3.40 0067  02.08.2006

@<TRIPOS>MOLECULE
ASD06620008
  67   68    0    0    0
SMALL
NO_CHARGES


@<TRIPOS>ATOM
   1 C1             0.0865     6.5514     3.9498 C.2     
   2 C2             0.0334     5.5333     4.9258 C.2     
   3 C3             1.1787     4.8921     5.2830 C.2     
   4 C4             2.3967     5.2512     4.6771 C.2     
   5 C5             2.4328     6.2259     3.7466 C.2     
   6 N6             1.2903     6.8791     3.3767 N.pl3   
   7 N7            -0.8489     7.3265     3.4273 N.2     
   8 C8            -0.2833     8.1480     2.5226 C.2     
   9 C9             1.0554     7.8788     2.4818 C.2     
  10 C10           -0.9861     9.1649     1.7189 C.2     
  11 O11           -0.3664     9.8505     0.9299 O.2     
  12 O12           -2.3156     9.3340     1.8594 O.3     
  13 C13            2.0799     8.5613     1.6125 C.3     
  14 C14            2.2011     7.8130     0.2836 C.3     
  15 C15            3.2413     8.5059    -0.5990 C.3     
  16 C16            3.3624     7.7576    -1.9279 C.3     
  17 O17            4.3339     8.4048    -2.7522 O.3     
  18 Si18           4.6438     7.6239    -4.1502 Si      
  19 C19            3.0801     7.5073    -5.1562 C.3     
  20 C20            2.2150     6.3634    -4.6234 C.3     
  21 C21            2.3067     8.8233    -5.0510 C.3     
  22 C22            5.9332     8.5626    -5.1131 C.3     
  23 C23            5.4737    10.0093    -5.3048 C.3     
  24 C24            7.2563     8.5452    -4.3451 C.3     
  25 C25            5.2721     5.9100    -3.7781 C.3     
  26 C26            5.8519     5.2917    -5.0518 C.3     
  27 C27            6.3619     5.9877    -2.7071 C.3     
  28 Cl28           1.1378     3.6369     6.4816 Cl      
  29 C29           -2.9411    10.3534     1.0360 C.3     
  30 C30           -4.4415    10.3986     1.3324 C.3     
  31 H31           -0.9071     5.2661     5.3846 H       
  32 H32            3.3073     4.7436     4.9591 H       
  33 H33            3.3736     6.4932     3.2886 H       
  34 H34            1.7696     9.5890     1.4238 H       
  35 H35            3.0450     8.5605     2.1193 H       
  36 H36            2.5115     6.7853     0.4723 H       
  37 H37            1.2361     7.8138    -0.2232 H       
  38 H38            2.9309     9.5336    -0.7877 H       
  39 H39            4.2063     8.5051    -0.0922 H       
  40 H40            3.6728     6.7299    -1.7392 H       
  41 H41            2.3974     7.7584    -2.4347 H       
  42 H42            3.3325     7.3166    -6.1992 H       
  43 H43            2.7307     5.4156    -4.7777 H       
  44 H44            2.0348     6.5097    -3.5584 H       
  45 H45            1.2632     6.3499    -5.1544 H       
  46 H46            2.8762     9.6188    -5.5316 H       
  47 H47            1.3412     8.7178    -5.5457 H       
  48 H48            2.1518     9.0708    -4.0009 H       
  49 H49            6.0722     8.0934    -6.0871 H       
  50 H50            5.2316    10.4451    -4.3355 H       
  51 H51            6.2722    10.5851    -5.7728 H       
  52 H52            4.5901    10.0284    -5.9427 H       
  53 H53            7.6680     7.5359    -4.3533 H       
  54 H54            7.9606     9.2287    -4.8192 H       
  55 H55            7.0830     8.8585    -3.3156 H       
  56 H56            4.4502     5.2924    -3.4160 H       
  57 H57            6.1335     4.2567    -4.8577 H       
  58 H58            5.1036     5.3222    -5.8438 H       
  59 H59            6.7318     5.8556    -5.3615 H       
  60 H60            5.9555     6.4512    -1.8081 H       
  61 H61            6.7119     4.9827    -2.4712 H       
  62 H62            7.1948     6.5845    -3.0788 H       
  63 H63           -2.4973    11.3236     1.2592 H       
  64 H64           -2.7856    10.1161    -0.0165 H       
  65 H65           -4.8853     9.4284     1.1092 H       
  66 H66           -4.5969    10.6358     2.3848 H       
  67 H67           -4.9110    11.1638     0.7142 H       
@<TRIPOS>BOND
   1    1    2 1
   2    1    6 1
   3    1    7 2
   4    2    3 2
   5    2   31 1
   6    3    4 1
   7    3   28 1
   8    4    5 2
   9    4   32 1
  10    5    6 1
  11    5   33 1
  12    6    9 1
  13    7    8 1
  14    8    9 2
  15    8   10 1
  16    9   13 1
  17   10   11 2
  18   10   12 1
  19   12   29 1
  20   13   14 1
  21   13   34 1
  22   13   35 1
  23   14   15 1
  24   14   36 1
  25   14   37 1
  26   15   16 1
  27   15   38 1
  28   15   39 1
  29   16   17 1
  30   16   40 1
  31   16   41 1
  32   17   18 1
  33   18   19 1
  34   18   22 1
  35   18   25 1
  36   19   20 1
  37   19   21 1
  38   19   42 1
  39   20   43 1
  40   20   44 1
  41   20   45 1
  42   21   46 1
  43   21   47 1
  44   21   48 1
  45   22   23 1
  46   22   24 1
  47   22   49 1
  48   23   50 1
  49   23   51 1
  50   23   52 1
  51   24   53 1
  52   24   54 1
  53   24   55 1
  54   25   26 1
  55   25   27 1
  56   25   56 1
  57   26   57 1
  58   26   58 1
  59   26   59 1
  60   27   60 1
  61   27   61 1
  62   27   62 1
  63   29   30 1
  64   29   63 1
  65   29   64 1
  66   30   65 1
  67   30   66 1
  68   30   67 1

#	End of record

