#	Name: ASD01180073
#	Creating user name:	WinNT
#	Creation time:	15. 06. 2019 19:06

#	Modifying user name:	WinNT
#	Modification time:	15. 06. 2019 19:06

#	Program:	/corina/corina34_cracker 3.40 0067  02.08.2006

@<TRIPOS>MOLECULE
ASD01180073
  68   71    0    0    0
SMALL
NO_CHARGES


@<TRIPOS>ATOM
   1 Cl1            0.0000     0.0000     0.0000 Cl      
   2 H2             0.0000     1.3700     0.0000 H       
   3 O3             8.1211    11.3436     7.4719 O.2     
   4 O4            13.2153     9.3955    10.3836 O.2     
   5 N5            11.9675     8.4597    14.2461 N.3     
   6 N6             8.7330    10.0021     9.1264 N.am    
   7 N7            11.7150     8.1108    11.4004 N.am    
   8 N8            10.9417    12.0202     6.8902 N.pl3   
   9 C9            13.1503     8.2304    13.3770 C.3     
  10 C10            7.3285     9.6829     9.3941 C.3     
  11 C11           14.1370     7.4405    14.2634 C.3     
  12 C12           12.5476     8.7594    15.5805 C.3     
  13 C13           13.7405     7.7885    15.7130 C.3     
  14 C14            7.0889     8.1728     9.2209 C.3     
  15 C15            6.9801    10.0192    10.8588 C.3     
  16 C16            6.6032     7.6442    10.5864 C.3     
  17 C17            6.0087     8.8912    11.2868 C.3     
  18 C18           11.1647     9.5880    13.7556 C.3     
  19 C19           12.7584     7.4060    12.1491 C.3     
  20 C20            9.6902     9.4224     9.8885 C.2     
  21 C21           11.0136     9.6911     9.6742 C.2     
  22 C22            9.0242    10.8547     8.1296 C.2     
  23 C23           11.3772    10.6216     8.5994 C.2     
  24 C24           10.3643    11.1922     7.8347 C.2     
  25 C25            9.8726     9.6862    14.5691 C.3     
  26 C26           11.9621    10.8850    13.9064 C.3     
  27 C27           12.0525     9.0601    10.5051 C.2     
  28 C28           12.6447    11.1426     8.0813 C.ar    
  29 C29           12.3133    12.0112     7.0252 C.ar    
  30 C30           10.2023    12.8010     5.8953 C.3     
  31 C31           13.9831    10.9424     8.4233 C.ar    
  32 C32           13.3329    12.6611     6.3344 C.ar    
  33 C33           14.9674    11.5905     7.7316 C.ar    
  34 C34           14.6460    12.4580     6.6972 C.ar    
  35 H35           13.5891     9.1809    13.0735 H       
  36 H36            6.6830    10.2434     8.7179 H       
  37 H37           14.0297     6.3700    14.0882 H       
  38 H38           15.1610     7.7567    14.0646 H       
  39 H39           12.8921     9.7927    15.6219 H       
  40 H40           11.8147     8.5704    16.3648 H       
  41 H41           13.4387     6.8889    16.2493 H       
  42 H42           14.5700     8.2756    16.2258 H       
  43 H43            7.8775    10.0050    11.4774 H       
  44 H44            6.4883    10.9900    10.9207 H       
  45 H45            6.3265     8.0005     8.4612 H       
  46 H46            8.0176     7.6775     8.9376 H       
  47 H47            6.0153     8.7660    12.3696 H       
  48 H48            5.0000     9.0926    10.9263 H       
  49 H49            5.8364     6.8817    10.4494 H       
  50 H50            7.4397     7.2464    11.1609 H       
  51 H51           10.9214     9.4311    12.7048 H       
  52 H52           12.3825     6.4341    12.4689 H       
  53 H53           13.6315     7.2661    11.5117 H       
  54 H54            9.4049     8.7403    10.6758 H       
  55 H55           10.7812     7.8943    11.5489 H       
  56 H56           12.9421    10.7648    13.4446 H       
  57 H57           11.4274    11.6992    13.4174 H       
  58 H58           12.0850    11.1150    14.9648 H       
  59 H59           10.1123     9.9322    15.6036 H       
  60 H60            9.2367    10.4652    14.1484 H       
  61 H61            9.3481     8.7313    14.5348 H       
  62 H62            9.9654    13.7823     6.3065 H       
  63 H63           10.8125    12.9198     5.0000 H       
  64 H64            9.2787    12.2818     5.6393 H       
  65 H65           14.2404    10.2765     9.2337 H       
  66 H66           13.0944    13.3232     5.5152 H       
  67 H67           16.0022    11.4339     7.9982 H       
  68 H68           15.4340    12.9635     6.1588 H       
@<TRIPOS>BOND
   1    1    2 1
   2    3   22 2
   3    4   27 2
   4    5    9 1
   5    5   12 1
   6    5   18 1
   7    6   10 1
   8    6   20 1
   9    6   22 am
  10    7   19 1
  11    7   27 am
  12    7   55 1
  13    8   24 1
  14    8   29 1
  15    8   30 1
  16    9   11 1
  17    9   19 1
  18    9   35 1
  19   10   14 1
  20   10   15 1
  21   10   36 1
  22   11   13 1
  23   11   37 1
  24   11   38 1
  25   12   13 1
  26   12   39 1
  27   12   40 1
  28   13   41 1
  29   13   42 1
  30   14   16 1
  31   14   45 1
  32   14   46 1
  33   15   17 1
  34   15   43 1
  35   15   44 1
  36   16   17 1
  37   16   49 1
  38   16   50 1
  39   17   47 1
  40   17   48 1
  41   18   25 1
  42   18   26 1
  43   18   51 1
  44   19   52 1
  45   19   53 1
  46   20   21 2
  47   20   54 1
  48   21   23 1
  49   21   27 1
  50   22   24 1
  51   23   24 2
  52   23   28 1
  53   25   59 1
  54   25   60 1
  55   25   61 1
  56   26   56 1
  57   26   57 1
  58   26   58 1
  59   28   29 ar
  60   28   31 ar
  61   29   32 ar
  62   30   62 1
  63   30   63 1
  64   30   64 1
  65   31   33 ar
  66   31   65 1
  67   32   34 ar
  68   32   66 1
  69   33   34 ar
  70   33   67 1
  71   34   68 1

#	End of record

