#	Name: ASD02030398
#	Creating user name:	WinNT
#	Creation time:	15. 06. 2019 20:15

#	Modifying user name:	WinNT
#	Modification time:	15. 06. 2019 20:15

#	Program:	/corina/corina34_cracker 3.40 0067  02.08.2006

@<TRIPOS>MOLECULE
ASD02030398
  32   33    0    0    0
SMALL
NO_CHARGES


@<TRIPOS>ATOM
   1 C1            -0.0157     1.3093     0.0092 C.ar    
   2 N2             0.0021    -0.0041     0.0020 N.ar    
   3 C3             1.1396    -0.7086    -0.0127 C.ar    
   4 C4             2.3749    -0.0861    -0.0207 C.ar    
   5 C5             2.4221     1.3199    -0.0136 C.ar    
   6 C6             3.6364     2.0211    -0.0214 C.ar    
   7 C7             3.6251     3.3875    -0.0145 C.ar    
   8 C8             2.4141     4.0948     0.0008 C.ar    
   9 C9             1.2167     3.4356     0.0088 C.ar    
  10 C10            1.1969     2.0355     0.0016 C.ar    
  11 C11            1.0748    -2.1842    -0.0200 C.2     
  12 O12            2.0991    -2.8371    -0.0333 O.2     
  13 O13           -0.1205    -2.8061    -0.0119 O.3     
  14 O14            2.4315     5.4536     0.0084 O.3     
  15 C15            1.1667     6.1185     0.0240 C.3     
  16 O16            4.8007     4.0688    -0.0221 O.3     
  17 C17            6.0004     3.2925    -0.0372 C.3     
  18 O18           -1.1992     1.9695     0.0184 O.3     
  19 C19           -2.3861     1.1736     0.0197 C.3     
  20 H20            3.2848    -0.6677    -0.0318 H       
  21 H21            4.5739     1.4851    -0.0325 H       
  22 H22            0.2909     3.9917     0.0210 H       
  23 H23           -0.1123    -3.7730    -0.0172 H       
  24 H24            0.5977     5.8377    -0.8623 H       
  25 H25            0.6143     5.8277     0.9175 H       
  26 H26            1.3233     7.1971     0.0286 H       
  27 H27            6.8637     3.9579    -0.0420 H       
  28 H28            6.0346     2.6593     0.8493 H       
  29 H29            6.0179     2.6682    -0.9305 H       
  30 H30           -2.4059     0.5493    -0.8736 H       
  31 H31           -2.3974     0.5396     0.9063 H       
  32 H32           -3.2602     1.8247     0.0274 H       
@<TRIPOS>BOND
   1    1    2 ar
   2    1   10 ar
   3    1   18 1
   4    2    3 ar
   5    3    4 ar
   6    3   11 1
   7    4    5 ar
   8    4   20 1
   9    5    6 ar
  10    5   10 ar
  11    6    7 ar
  12    6   21 1
  13    7    8 ar
  14    7   16 1
  15    8    9 ar
  16    8   14 1
  17    9   10 ar
  18    9   22 1
  19   11   12 2
  20   11   13 1
  21   13   23 1
  22   14   15 1
  23   15   24 1
  24   15   25 1
  25   15   26 1
  26   16   17 1
  27   17   27 1
  28   17   28 1
  29   17   29 1
  30   18   19 1
  31   19   30 1
  32   19   31 1
  33   19   32 1

#	End of record

