#	Name: ASD03091869
#	Creating user name:	WinNT
#	Creation time:	15. 06. 2019 20:31

#	Modifying user name:	WinNT
#	Modification time:	15. 06. 2019 20:31

#	Program:	/corina/corina34_cracker 3.40 0067  02.08.2006

@<TRIPOS>MOLECULE
ASD03091869
  61   65    0    0    0
SMALL
NO_CHARGES


@<TRIPOS>ATOM
   1 C1            -0.0170     1.3998     0.0097 C.ar    
   2 C2            -1.2283     2.0682     0.0306 C.ar    
   3 C3            -2.4087     1.3494     0.0435 C.ar    
   4 C4            -2.3914    -0.0360     0.0356 C.ar    
   5 C5            -1.1918    -0.7183     0.0148 C.ar    
   6 C6             0.0021    -0.0041     0.0020 C.ar    
   7 O7             1.1631     2.0665     0.0021 O.3     
   8 C8             2.2620     1.4580     0.6804 C.3     
   9 N9             2.4081     0.0565     0.2863 N.am    
  10 C10            1.3144    -0.6822    -0.0142 C.2     
  11 C11           -3.6892    -0.8018     0.0501 C.3     
  12 C12           -4.2052    -0.9426    -1.3588 C.ar    
  13 C13           -5.0422     0.0186    -1.8948 C.ar    
  14 C14           -3.8403    -2.0352    -2.1324 C.ar    
  15 C15           -4.3356    -2.1269    -3.4217 C.ar    
  16 C16           -5.1790    -1.1245    -3.8957 C.ar    
  17 N17           -5.5000    -0.0931    -3.1252 N.ar    
  18 O18            1.4088    -1.8630    -0.2883 O.2     
  19 C19            3.7406    -0.5484     0.2167 C.3     
  20 C20            4.0030    -1.0464    -1.2079 C.3     
  21 O21            4.0069     0.0628    -2.1089 O.3     
  22 C22           -5.7182    -1.2081    -5.2751 C.2     
  23 C23           -3.7269     2.0794     0.0669 C.3     
  24 C24            3.8163    -1.7320     1.1847 C.3     
  25 O25            5.0972    -2.3558     1.0730 O.3     
  26 C26            5.3782    -2.8828    -0.2252 C.3     
  27 C27            5.3653    -1.7455    -1.2499 C.3     
  28 C28           -6.5727    -0.2715    -5.8893 C.2     
  29 C29           -6.8337    -0.7074    -7.1407 C.2     
  30 N30           -6.1757    -1.8727    -7.3221 N.pl3   
  31 N31           -5.4782    -2.1679    -6.1438 N.2     
  32 C32           -1.2604     3.5748     0.0397 C.3     
  33 C33           -6.1856    -2.6847    -8.5415 C.3     
  34 H34           -1.1800    -1.7983     0.0090 H       
  35 H35            3.1773     1.9966     0.4346 H       
  36 H36            2.0934     1.5120     1.7559 H       
  37 H37           -3.5226    -1.7910     0.4766 H       
  38 H38           -4.4213    -0.2647     0.6532 H       
  39 H39           -5.3249     0.8722    -1.2967 H       
  40 H40           -3.1841    -2.7967    -1.7376 H       
  41 H41           -4.0717    -2.9636    -4.0515 H       
  42 H42            4.4919     0.1931     0.4885 H       
  43 H43            3.2220    -1.7492    -1.4981 H       
  44 H44            4.1744    -0.1793    -3.0300 H       
  45 H45           -4.0596     2.2614    -0.9550 H       
  46 H46           -4.4684     1.4737     0.5879 H       
  47 H47           -3.6062     3.0309     0.5846 H       
  48 H48            3.6728    -1.3768     2.2052 H       
  49 H49            3.0377    -2.4538     0.9380 H       
  50 H50            6.3599    -3.3566    -0.2204 H       
  51 H51            4.6201    -3.6197    -0.4904 H       
  52 H52            5.5358    -2.1515    -2.2469 H       
  53 H53            6.1501    -1.0287    -1.0084 H       
  54 H54           -6.9517     0.6343    -5.4393 H       
  55 H55           -7.4590    -0.2114    -7.8683 H       
  56 H56           -1.2533     3.9321     1.0695 H       
  57 H57           -0.3858     3.9600    -0.4845 H       
  58 H58           -2.1652     3.9220    -0.4591 H       
  59 H59           -5.3710    -2.3702    -9.1940 H       
  60 H60           -6.0567    -3.7349    -8.2798 H       
  61 H61           -7.1364    -2.5530    -9.0580 H       
@<TRIPOS>BOND
   1    1    6 ar
   2    1    7 1
   3    1    2 ar
   4    2    3 ar
   5    2   32 1
   6    3    4 ar
   7    3   23 1
   8    4    5 ar
   9    4   11 1
  10    5    6 ar
  11    5   34 1
  12    6   10 1
  13    7    8 1
  14    8    9 1
  15    8   35 1
  16    8   36 1
  17    9   10 am
  18    9   19 1
  19   10   18 2
  20   11   12 1
  21   11   37 1
  22   11   38 1
  23   12   14 ar
  24   12   13 ar
  25   13   17 ar
  26   13   39 1
  27   14   15 ar
  28   14   40 1
  29   15   16 ar
  30   15   41 1
  31   16   22 1
  32   16   17 ar
  33   19   24 1
  34   19   20 1
  35   19   42 1
  36   20   21 1
  37   20   27 1
  38   20   43 1
  39   21   44 1
  40   22   31 2
  41   22   28 1
  42   23   45 1
  43   23   46 1
  44   23   47 1
  45   24   25 1
  46   24   48 1
  47   24   49 1
  48   25   26 1
  49   26   27 1
  50   26   50 1
  51   26   51 1
  52   27   52 1
  53   27   53 1
  54   28   29 2
  55   28   54 1
  56   29   30 1
  57   29   55 1
  58   30   33 1
  59   30   31 1
  60   32   56 1
  61   32   57 1
  62   32   58 1
  63   33   59 1
  64   33   60 1
  65   33   61 1

#	End of record

