#	Name: ASD01918437
#	Creating user name:	WinNT
#	Creation time:	15. 06. 2019 20:11

#	Modifying user name:	WinNT
#	Modification time:	15. 06. 2019 20:11

#	Program:	/corina/corina34_cracker 3.40 0067  02.08.2006

@<TRIPOS>MOLECULE
ASD01918437
  58   62    0    0    0
SMALL
NO_CHARGES


@<TRIPOS>ATOM
   1 C1            -0.4956     1.4358    -0.0084 C.3     
   2 C2            -0.3874    -0.0672     0.0034 C.2     
   3 N3            -0.4576    -0.8203    -1.0388 N.2     
   4 C4            -0.3379    -2.1311    -0.8614 C.2     
   5 C5            -0.3656    -3.1395    -2.0096 C.3     
   6 C6             1.0212    -3.7920    -2.0826 C.3     
   7 N7             1.1733    -4.7637    -1.0118 N.am    
   8 C8             1.3040    -4.4470     0.4028 C.3     
   9 C9            -0.0343    -3.9009     0.9288 C.3     
  10 C10           -0.1746    -2.4772     0.4148 C.2     
  11 S11           -0.1462    -1.0214     1.4017 S.3     
  12 C12            1.1947    -6.0661    -1.3579 C.2     
  13 O13            1.0892    -6.3857    -2.5231 O.2     
  14 C14            1.3495    -7.1251    -0.2970 C.3     
  15 N15            1.3430    -8.4491    -0.9241 N.pl3   
  16 C16            0.2505    -9.2467    -1.1238 C.2     
  17 C17            0.6931   -10.3785    -1.7341 C.2     
  18 N18            2.0239   -10.2696    -1.9008 N.2     
  19 C19            2.4254    -9.1139    -1.4234 C.2     
  20 C20            3.8184    -8.6170    -1.4237 C.ar    
  21 C21            4.0765    -7.2563    -1.2520 C.ar    
  22 C22            5.3773    -6.7983    -1.2527 C.ar    
  23 C23            6.4272    -7.6866    -1.4240 C.ar    
  24 F24            7.6997    -7.2328    -1.4238 F       
  25 C25            6.1764    -9.0388    -1.5949 C.ar    
  26 C26            4.8795    -9.5080    -1.5900 C.ar    
  27 C27           -0.1450   -11.5324    -2.1443 C.ar    
  28 C28           -1.5193   -11.5138    -1.9158 C.ar    
  29 C29           -2.2949   -12.5891    -2.2989 C.ar    
  30 C30           -1.7090   -13.6859    -2.9092 C.ar    
  31 F31           -2.4720   -14.7364    -3.2825 F       
  32 C32           -0.3427   -13.7086    -3.1383 C.ar    
  33 C33            0.2890   -14.9044    -3.8031 C.3     
  34 C34            0.4395   -12.6353    -2.7643 C.ar    
  35 H35            0.4956     1.8705    -0.1374 H       
  36 H36           -1.1389     1.7474    -0.8313 H       
  37 H37           -0.9219     1.7768     0.9351 H       
  38 H38           -1.1228    -3.8994    -1.8168 H       
  39 H39           -0.5838    -2.6275    -2.9469 H       
  40 H40            1.1348    -4.2930    -3.0440 H       
  41 H41            1.7879    -3.0235    -1.9849 H       
  42 H42            1.5707    -5.3487     0.9542 H       
  43 H43            2.0815    -3.6950     0.5369 H       
  44 H44           -0.8564    -4.5123     0.5567 H       
  45 H45           -0.0331    -3.9032     2.0188 H       
  46 H46            2.2925    -6.9770     0.2293 H       
  47 H47            0.5234    -7.0542     0.4105 H       
  48 H48           -0.7693    -9.0211    -0.8489 H       
  49 H49            3.2590    -6.5632    -1.1192 H       
  50 H50            5.5782    -5.7455    -1.1199 H       
  51 H51            6.9981    -9.7269    -1.7280 H       
  52 H52            4.6853   -10.5626    -1.7189 H       
  53 H53           -1.9769   -10.6594    -1.4394 H       
  54 H54           -3.3603   -12.5756    -2.1222 H       
  55 H55            0.2942   -14.7589    -4.8834 H       
  56 H56            1.3128   -15.0195    -3.4470 H       
  57 H57           -0.2831   -15.7997    -3.5598 H       
  58 H58            1.5037   -12.6519    -2.9473 H       
@<TRIPOS>BOND
   1    1    2 1
   2    1   35 1
   3    1   36 1
   4    1   37 1
   5    2   11 1
   6    2    3 2
   7    3    4 1
   8    4   10 2
   9    4    5 1
  10    5    6 1
  11    5   38 1
  12    5   39 1
  13    6    7 1
  14    6   40 1
  15    6   41 1
  16    7    8 1
  17    7   12 am
  18    8    9 1
  19    8   42 1
  20    8   43 1
  21    9   10 1
  22    9   44 1
  23    9   45 1
  24   10   11 1
  25   12   13 2
  26   12   14 1
  27   14   15 1
  28   14   46 1
  29   14   47 1
  30   15   19 1
  31   15   16 1
  32   16   17 2
  33   16   48 1
  34   17   18 1
  35   17   27 1
  36   18   19 2
  37   19   20 1
  38   20   26 ar
  39   20   21 ar
  40   21   22 ar
  41   21   49 1
  42   22   23 ar
  43   22   50 1
  44   23   24 1
  45   23   25 ar
  46   25   26 ar
  47   25   51 1
  48   26   52 1
  49   27   34 ar
  50   27   28 ar
  51   28   29 ar
  52   28   53 1
  53   29   30 ar
  54   29   54 1
  55   30   31 1
  56   30   32 ar
  57   32   33 1
  58   32   34 ar
  59   33   55 1
  60   33   56 1
  61   33   57 1
  62   34   58 1

#	End of record

