#	Name: ASD01880392
#	Creating user name:	WinNT
#	Creation time:	15. 06. 2019 19:40

#	Modifying user name:	WinNT
#	Modification time:	15. 06. 2019 19:40

#	Program:	/corina/corina34_cracker 3.40 0067  02.08.2006

@<TRIPOS>MOLECULE
ASD01880392
  46   47    0    0    0
SMALL
NO_CHARGES


@<TRIPOS>ATOM
   1 C1            -0.0159     1.3213     0.0093 C.ar    
   2 N2             0.0021    -0.0041     0.0020 N.ar    
   3 C3            -1.1220    -0.7042     0.0094 C.ar    
   4 C4            -2.3622    -0.0155     0.0254 C.ar    
   5 C5            -2.3279     1.3811     0.0326 C.ar    
   6 N6            -1.1425     2.0049     0.0292 N.ar    
   7 C7            -3.7211    -0.5257     0.0354 C.2     
   8 C8            -4.6595     0.4001     0.0491 C.2     
   9 S9            -3.9684     2.0116     0.0513 S.3     
  10 C10           -6.1383     0.1102     0.0614 C.3     
  11 C11           -6.6253     0.0044     1.5080 C.3     
  12 C12           -8.1267    -0.2899     1.5204 C.3     
  13 N13           -1.0874    -2.0867     0.0012 N.pl3   
  14 C14            0.1992    -2.7872    -0.0158 C.3     
  15 C15            0.7217    -2.9288     1.4152 C.3     
  16 C16            1.0187    -1.5631     1.9790 C.2     
  17 C17            0.4686    -1.1862     3.1065 C.2     
  18 C18            0.6855    -4.4870    -1.7083 C.2     
  19 C19            0.0185    -4.1549    -0.6223 C.2     
  20 O20            0.5229    -5.7183    -2.2542 O.3     
  21 C21            1.2778    -6.0107    -3.4318 C.3     
  22 O22            1.1603     1.9940     0.0017 O.3     
  23 C23            1.0914     3.4213     0.0100 C.3     
  24 H24           -3.9460    -1.5820     0.0315 H       
  25 H25           -6.6708     0.9164    -0.4432 H       
  26 H26           -6.3285    -0.8303    -0.4557 H       
  27 H27           -6.0928    -0.8019     2.0125 H       
  28 H28           -6.4351     0.9448     2.0251 H       
  29 H29           -8.6592     0.5163     1.0159 H       
  30 H30           -8.3169    -1.2304     1.0033 H       
  31 H31           -8.4736    -0.3654     2.5510 H       
  32 H32           -1.9150    -2.5926     0.0067 H       
  33 H33            0.9148    -2.2182    -0.6093 H       
  34 H34           -0.0323    -3.4197     2.0304 H       
  35 H35            1.6332    -3.5265     1.4117 H       
  36 H36            1.6851    -0.8952     1.4534 H       
  37 H37           -0.1977    -1.8541     3.6321 H       
  38 H38            0.6815    -0.2075     3.5105 H       
  39 H39            1.3619    -3.7792    -2.1642 H       
  40 H40           -0.6579    -4.8627    -0.1663 H       
  41 H41            1.0124    -5.3042    -4.2183 H       
  42 H42            2.3420    -5.9263    -3.2114 H       
  43 H43            1.0549    -7.0247    -3.7638 H       
  44 H44            0.5522     3.7642    -0.8730 H       
  45 H45            0.5692     3.7547     0.9068 H       
  46 H46            2.1003     3.8338     0.0026 H       
@<TRIPOS>BOND
   1    1    2 ar
   2    1   22 1
   3    1    6 ar
   4    2    3 ar
   5    3    4 ar
   6    3   13 1
   7    4    5 ar
   8    4    7 1
   9    5    6 ar
  10    5    9 1
  11    7    8 2
  12    7   24 1
  13    8    9 1
  14    8   10 1
  15   10   11 1
  16   10   25 1
  17   10   26 1
  18   11   12 1
  19   11   27 1
  20   11   28 1
  21   12   29 1
  22   12   30 1
  23   12   31 1
  24   13   14 1
  25   13   32 1
  26   14   15 1
  27   14   19 1
  28   14   33 1
  29   15   16 1
  30   15   34 1
  31   15   35 1
  32   16   17 2
  33   16   36 1
  34   17   37 1
  35   17   38 1
  36   18   19 2
  37   18   20 1
  38   18   39 1
  39   19   40 1
  40   20   21 1
  41   21   41 1
  42   21   42 1
  43   21   43 1
  44   22   23 1
  45   23   44 1
  46   23   45 1
  47   23   46 1

#	End of record

