#	Name: ASD08150197
#	Creating user name:	WinNT
#	Creation time:	15. 06. 2019 21:15

#	Modifying user name:	WinNT
#	Modification time:	15. 06. 2019 21:15

#	Program:	/corina/corina34_cracker 3.40 0067  02.08.2006

@<TRIPOS>MOLECULE
ASD08150197
  43   47    0    0    0
SMALL
NO_CHARGES


@<TRIPOS>ATOM
   1 N1            -0.0589     1.3255     0.0533 N.2     
   2 C2            -0.0736     0.0281     0.0036 C.2     
   3 N3             1.0481    -0.7275    -0.1241 N.am    
   4 C4             2.2664    -0.1437    -0.2075 C.2     
   5 C5             2.3182     1.3249    -0.1542 C.ar    
   6 C6             3.5214     2.0232    -0.2323 C.ar    
   7 C7             3.5120     3.3997    -0.1778 C.ar    
   8 C8             2.3160     4.0932    -0.0457 C.ar    
   9 C9             1.1166     3.4222     0.0336 C.ar    
  10 C10            1.0999     2.0269    -0.0203 C.ar    
  11 O11            3.2796    -0.8085    -0.3217 O.2     
  12 C12            4.8235     1.2781    -0.3747 C.3     
  13 C13            0.9382    -2.1876    -0.1715 C.3     
  14 C14            0.2141    -2.8030    -1.3705 C.3     
  15 C15            1.7349    -2.9213    -1.2521 C.3     
  16 C16           -1.4033    -0.6756     0.0925 C.3     
  17 N17           -3.9529     1.6337     1.1413 N.2     
  18 C18           -3.0309     0.7499     1.3912 C.2     
  19 N19           -2.4730     0.3166     0.2254 N.pl3   
  20 C20           -3.0966     0.9803    -0.8008 C.ar    
  21 N21           -2.9853     0.9775    -2.1250 N.ar    
  22 C22           -3.7512     1.7520    -2.8643 C.ar    
  23 N23           -4.6556     2.5604    -2.3426 N.ar    
  24 C24           -4.8388     2.6314    -1.0281 C.ar    
  25 C25           -4.0451     1.8232    -0.1969 C.ar    
  26 N26           -5.7889     3.4821    -0.4906 N.pl3   
  27 H27            4.4428     3.9442    -0.2380 H       
  28 H28            2.3270     5.1724    -0.0042 H       
  29 H29            0.1928     3.9723     0.1362 H       
  30 H30            4.9915     1.0375    -1.4245 H       
  31 H31            5.6403     1.9007    -0.0095 H       
  32 H32            4.7807     0.3572     0.2068 H       
  33 H33            0.8243    -2.6820     0.7933 H       
  34 H34           -0.3759    -3.7025    -1.1947 H       
  35 H35           -0.1806    -2.1215    -2.1241 H       
  36 H36            2.3408    -2.3177    -1.9279 H       
  37 H37            2.1454    -3.8987    -0.9985 H       
  38 H38           -1.5639    -1.2643    -0.8106 H       
  39 H39           -1.4085    -1.3340     0.9612 H       
  40 H40           -2.7491     0.4102     2.3769 H       
  41 H41           -3.6352     1.7255    -3.9377 H       
  42 H42           -6.3305     4.0354    -1.0749 H       
  43 H43           -5.9132     3.5250     0.4704 H       
@<TRIPOS>BOND
   1    1    2 2
   2    1   10 1
   3    2    3 1
   4    2   16 1
   5    3    4 am
   6    3   13 1
   7    4    5 1
   8    4   11 2
   9    5    6 ar
  10    5   10 ar
  11    6    7 ar
  12    6   12 1
  13    7    8 ar
  14    7   27 1
  15    8    9 ar
  16    8   28 1
  17    9   10 ar
  18    9   29 1
  19   12   30 1
  20   12   31 1
  21   12   32 1
  22   13   14 1
  23   13   15 1
  24   13   33 1
  25   14   15 1
  26   14   34 1
  27   14   35 1
  28   15   36 1
  29   15   37 1
  30   16   19 1
  31   16   38 1
  32   16   39 1
  33   17   18 2
  34   17   25 1
  35   18   19 1
  36   18   40 1
  37   19   20 1
  38   20   21 ar
  39   20   25 ar
  40   21   22 ar
  41   22   23 ar
  42   22   41 1
  43   23   24 ar
  44   24   25 ar
  45   24   26 1
  46   26   42 1
  47   26   43 1

#	End of record

