#	Name: ASD01200319
#	Creating user name:	WinNT
#	Creation time:	15. 06. 2019 19:08

#	Modifying user name:	WinNT
#	Modification time:	15. 06. 2019 19:08

#	Program:	/corina/corina34_cracker 3.40 0067  02.08.2006

@<TRIPOS>MOLECULE
ASD01200319
  23   24    0    0    0
SMALL
NO_CHARGES


@<TRIPOS>ATOM
   1 N1             2.2306     1.3385     0.5650 N.ar    
   2 C2             2.2417     0.0207     0.5642 C.ar    
   3 C3             1.2057    -0.6961    -0.0211 C.ar    
   4 C4             0.1515    -0.0015    -0.6089 C.ar    
   5 C5             0.1812     1.3834    -0.5848 C.ar    
   6 C6             1.2472     2.0255     0.0169 C.ar    
   7 N7             1.2213    -2.0946    -0.0204 N.am    
   8 C8             0.0669    -2.7814     0.0891 C.2     
   9 O9            -0.9777    -2.1884     0.2855 O.2     
  10 N10            1.1699    -5.0398    -0.2490 N.pl3   
  11 C11            0.0693    -4.2431    -0.0283 C.2     
  12 C12           -1.0305    -5.0699     0.0627 C.2     
  13 C13           -0.5741    -6.3808    -0.1071 C.2     
  14 C14            0.7666    -6.3330    -0.2947 C.2     
  15 H15            3.0648    -0.5073     1.0228 H       
  16 H16           -0.6688    -0.5294    -1.0725 H       
  17 H17           -0.6192     1.9548    -1.0312 H       
  18 H18            1.2752     3.1050     0.0385 H       
  19 H19            2.0631    -2.5703    -0.0987 H       
  20 H20            2.0818    -4.7274    -0.3579 H       
  21 H21           -2.0518    -4.7630     0.2329 H       
  22 H22           -1.1826    -7.2729    -0.0915 H       
  23 H23            1.4091    -7.1862    -0.4550 H       
@<TRIPOS>BOND
   1    1    2 ar
   2    1    6 ar
   3    2    3 ar
   4    2   15 1
   5    3    4 ar
   6    3    7 1
   7    4    5 ar
   8    4   16 1
   9    5    6 ar
  10    5   17 1
  11    6   18 1
  12    7    8 am
  13    7   19 1
  14    8    9 2
  15    8   11 1
  16   10   11 1
  17   10   14 1
  18   10   20 1
  19   11   12 2
  20   12   13 1
  21   12   21 1
  22   13   14 2
  23   13   22 1
  24   14   23 1

#	End of record

