#	Name: ASD01881404
#	Creating user name:	WinNT
#	Creation time:	15. 06. 2019 19:42

#	Modifying user name:	WinNT
#	Modification time:	15. 06. 2019 19:42

#	Program:	/corina/corina34_cracker 3.40 0067  02.08.2006

@<TRIPOS>MOLECULE
ASD01881404
  53   57    0    0    0
SMALL
NO_CHARGES


@<TRIPOS>ATOM
   1 C1            -0.0166     1.3744     0.0096 C.ar    
   2 C2             0.0021    -0.0041     0.0020 C.ar    
   3 C3             1.1766     2.0871     0.0020 C.ar    
   4 C4             2.3932     1.4114    -0.0137 C.ar    
   5 C5             2.4170     0.0329    -0.0219 C.ar    
   6 C6             1.2198    -0.6842    -0.0133 C.ar    
   7 C7             1.2422    -2.1653    -0.0215 C.2     
   8 C8             0.7597    -2.8767     1.0612 C.2     
   9 C9             1.7528    -2.8666    -1.1411 C.2     
  10 C10            1.7718    -4.2125    -1.1467 C.2     
  11 N11            1.3026    -4.9231    -0.0795 N.pl3   
  12 C12            0.7944    -4.2809     1.0239 C.2     
  13 C13            1.2005    -6.2549     0.1861 C.2     
  14 N14            0.6699    -6.3801     1.3750 N.2     
  15 N15            0.4250    -5.2220     1.8793 N.2     
  16 C16            1.6221    -7.3796    -0.7240 C.3     
  17 C17            3.0813    -7.7436    -0.4427 C.3     
  18 Cl18           3.8817     2.3047    -0.0237 Cl      
  19 N19            1.1547     3.4826     0.0098 N.pl3   
  20 C20           -0.1253     4.1950     0.0259 C.3     
  21 C21            3.6652    -8.9469    -1.1858 C.3     
  22 C22            4.0930    -7.5291    -1.5703 C.3     
  23 C23            0.0691     5.5841     0.6416 C.3     
  24 C24           -0.6425     4.3518    -1.4074 C.3     
  25 C25           -1.9394     5.1652    -1.3875 C.3     
  26 O26           -1.6956     6.4329    -0.7746 O.3     
  27 C27           -1.2552     6.3498     0.5824 C.3     
  28 C28            0.2054    -2.1570     2.2636 C.3     
  29 F29           -1.1843    -2.0500     2.1433 F       
  30 F30            0.5193    -2.8750     3.4225 F       
  31 F31            0.7667    -0.8779     2.3412 F       
  32 H32           -0.9595     1.9010     0.0169 H       
  33 H33           -0.9256    -0.5570     0.0083 H       
  34 H34            3.3611    -0.4914    -0.0348 H       
  35 H35            2.1278    -2.3196    -1.9935 H       
  36 H36            2.1627    -4.7368    -2.0061 H       
  37 H37            0.9897    -8.2490    -0.5443 H       
  38 H38            1.5200    -7.0644    -1.7624 H       
  39 H39            3.4209    -7.5695     0.5784 H       
  40 H40            1.9870     3.9807     0.0045 H       
  41 H41           -0.8484     3.6324     0.6164 H       
  42 H42            4.3891    -9.5641    -0.6537 H       
  43 H43            3.0097    -9.4792    -1.8751 H       
  44 H44            3.7190    -7.1287    -2.5125 H       
  45 H45            5.0983    -7.2136    -1.2912 H       
  46 H46            0.3843     5.4813     1.6800 H       
  47 H47            0.8296     6.1277     0.0812 H       
  48 H48            0.1036     4.8706    -2.0092 H       
  49 H49           -0.8363     3.3678    -1.8344 H       
  50 H50           -2.2893     5.3164    -2.4087 H       
  51 H51           -2.6977     4.6265    -0.8193 H       
  52 H52           -2.0046     5.8266     1.1764 H       
  53 H53           -1.1123     7.3545     0.9803 H       
@<TRIPOS>BOND
   1    1    2 ar
   2    1    3 ar
   3    1   32 1
   4    2    6 ar
   5    2   33 1
   6    3    4 ar
   7    3   19 1
   8    4    5 ar
   9    4   18 1
  10    5    6 ar
  11    5   34 1
  12    6    7 1
  13    7    8 2
  14    7    9 1
  15    8   28 1
  16    8   12 1
  17    9   10 2
  18    9   35 1
  19   10   11 1
  20   10   36 1
  21   11   12 1
  22   11   13 1
  23   12   15 2
  24   13   14 2
  25   13   16 1
  26   14   15 1
  27   16   17 1
  28   16   37 1
  29   16   38 1
  30   17   21 1
  31   17   22 1
  32   17   39 1
  33   19   20 1
  34   19   40 1
  35   20   23 1
  36   20   24 1
  37   20   41 1
  38   21   22 1
  39   21   42 1
  40   21   43 1
  41   22   44 1
  42   22   45 1
  43   23   27 1
  44   23   46 1
  45   23   47 1
  46   24   25 1
  47   24   48 1
  48   24   49 1
  49   25   26 1
  50   25   50 1
  51   25   51 1
  52   26   27 1
  53   27   52 1
  54   27   53 1
  55   28   29 1
  56   28   30 1
  57   28   31 1

#	End of record

