#	Name: ASD01816829
#	Creating user name:	WinNT
#	Creation time:	15. 06. 2019 19:36

#	Modifying user name:	WinNT
#	Modification time:	15. 06. 2019 19:36

#	Program:	/corina/corina34_cracker 3.40 0067  02.08.2006

@<TRIPOS>MOLECULE
ASD01816829
  51   54    0    0    0
SMALL
NO_CHARGES


@<TRIPOS>ATOM
   1 C1            -0.0166     1.3881     0.0184 C.ar    
   2 C2             0.0025    -0.0052    -0.0003 C.ar    
   3 C3             1.1805    -0.6883    -0.0233 C.ar    
   4 C4             2.3930     0.0184    -0.0287 C.ar    
   5 C5             2.3768     1.4368    -0.0102 C.ar    
   6 C6             1.1392     2.1061     0.0138 C.ar    
   7 C7             3.6308    -0.6538    -0.0518 C.ar    
   8 C8             4.7719     0.0926    -0.0554 C.ar    
   9 C9             4.6899     1.4945    -0.0363 C.ar    
  10 N10            3.5254     2.1169    -0.0156 N.ar    
  11 C11            5.9364     2.2920    -0.0400 C.2     
  12 N12            7.1314     1.6751     0.0484 N.am    
  13 O13            5.8825     3.5034    -0.1228 O.2     
  14 C14            8.3676     2.4526    -0.0683 C.3     
  15 C15            8.7332     3.0372     1.2975 C.3     
  16 C16            9.4984     1.5431    -0.5530 C.3     
  17 C17           10.7894     2.3551    -0.6748 C.3     
  18 C18           11.1550     2.9397     0.6910 C.3     
  19 C19           10.0242     3.8493     1.1757 C.3     
  20 O20            9.1569     0.9971    -1.8286 O.3     
  21 C21            3.6922    -2.1594    -0.0715 C.3     
  22 C22            3.5722    -2.6485    -1.4918 C.ar    
  23 C23            4.7012    -2.8256    -2.2680 C.ar    
  24 C24            2.3273    -2.9319    -2.0339 C.ar    
  25 C25            2.2643    -3.3791    -3.3439 C.ar    
  26 C26            3.4376    -3.5271    -4.0628 C.ar    
  27 N27            4.6049    -3.2529    -3.5122 N.ar    
  28 Cl28           3.3733    -4.0871    -5.7048 Cl      
  29 O29            3.4946     3.5324     0.0031 O.3     
  30 H30           -0.9640     1.9063     0.0323 H       
  31 H31           -0.9296    -0.5507     0.0038 H       
  32 H32            1.1816    -1.7682    -0.0370 H       
  33 H33            1.1069     3.1855     0.0279 H       
  34 H34            5.7363    -0.3931    -0.0725 H       
  35 H35            7.1730     0.7163     0.1892 H       
  36 H36            8.2213     3.2627    -0.7828 H       
  37 H37            7.9276     3.6852     1.6428 H       
  38 H38            8.8795     2.2272     2.0121 H       
  39 H39            9.6447     0.7331     0.1616 H       
  40 H40           11.5950     1.7071    -1.0201 H       
  41 H41           10.6430     3.1651    -1.3893 H       
  42 H42           11.3013     2.1297     1.4056 H       
  43 H43           12.0747     3.5182     0.6042 H       
  44 H44            9.8779     4.6593     0.4612 H       
  45 H45           10.2846     4.2658     2.1487 H       
  46 H46            9.8301     0.4091    -2.1977 H       
  47 H47            4.6427    -2.4898     0.3475 H       
  48 H48            2.8729    -2.5643     0.5226 H       
  49 H49            5.6743    -2.6113    -1.8512 H       
  50 H50            1.4282    -2.8071    -1.4486 H       
  51 H51            1.3118    -3.6095    -3.7980 H       
@<TRIPOS>BOND
   1    1    2 ar
   2    1    6 ar
   3    1   30 1
   4    2    3 ar
   5    2   31 1
   6    3    4 ar
   7    3   32 1
   8    4    5 ar
   9    4    7 ar
  10    5    6 ar
  11    5   10 ar
  12    6   33 1
  13    7    8 ar
  14    7   21 1
  15    8    9 ar
  16    8   34 1
  17    9   10 ar
  18    9   11 1
  19   10   29 1
  20   11   12 am
  21   11   13 2
  22   12   14 1
  23   12   35 1
  24   14   15 1
  25   14   16 1
  26   14   36 1
  27   15   19 1
  28   15   37 1
  29   15   38 1
  30   16   17 1
  31   16   20 1
  32   16   39 1
  33   17   18 1
  34   17   40 1
  35   17   41 1
  36   18   19 1
  37   18   42 1
  38   18   43 1
  39   19   44 1
  40   19   45 1
  41   20   46 1
  42   21   22 1
  43   21   47 1
  44   21   48 1
  45   22   23 ar
  46   22   24 ar
  47   23   27 ar
  48   23   49 1
  49   24   25 ar
  50   24   50 1
  51   25   26 ar
  52   25   51 1
  53   26   27 ar
  54   26   28 1

#	End of record

