#	Name: ASD07930646
#	Creating user name:	WinNT
#	Creation time:	15. 06. 2019 21:12

#	Modifying user name:	WinNT
#	Modification time:	15. 06. 2019 21:12

#	Program:	/corina/corina34_cracker 3.40 0067  02.08.2006

@<TRIPOS>MOLECULE
ASD07930646
  47   49    0    0    0
SMALL
NO_CHARGES


@<TRIPOS>ATOM
   1 C1            -0.5128     1.8669    -0.0947 C.3     
   2 N2             0.3664     0.1703    -2.3881 N.2     
   3 N3            -1.0815    -1.4138    -1.4632 N.pl3   
   4 C4            -0.9095    -2.4824    -0.4734 C.3     
   5 C5            -1.1958    -1.9252     0.9279 C.3     
   6 S6            -0.0979    -0.5009     1.2114 S.o2    
   7 N7            -0.3239     0.4157    -0.1617 N.am    
   8 C8            -0.3248    -0.2636    -1.3717 C.2     
   9 C9             0.5270    -3.0061    -0.5313 C.3     
  10 O10           -0.5889     0.3118     2.2685 O.2     
  11 O11            1.2658    -0.8965     1.1566 O.2     
  12 C12           -1.8681    -3.6057    -0.7738 C.ar    
  13 C13           -2.7984    -3.4671    -1.7849 C.ar    
  14 C14           -3.6817    -4.5027    -2.0614 C.ar    
  15 C15           -3.6271    -5.6755    -1.3200 C.ar    
  16 C16           -2.6949    -5.8099    -0.3094 C.ar    
  17 N17           -4.6248    -4.3644    -3.0843 N.am    
  18 S18           -4.8379    -5.5837    -4.1844 S.o2    
  19 C19           -3.3273    -5.7520    -5.0757 C.ar    
  20 C20           -2.3958    -6.6956    -4.6850 C.ar    
  21 C21           -1.2106    -6.8277    -5.3842 C.ar    
  22 C22           -0.9573    -6.0164    -6.4744 C.ar    
  23 C23           -1.8892    -5.0734    -6.8657 C.ar    
  24 C24           -3.0763    -4.9443    -6.1691 C.ar    
  25 O25           -4.9957    -6.7792    -3.4328 O.2     
  26 O26           -5.8042    -5.1185    -5.1167 O.2     
  27 C27           -1.8117    -4.7785    -0.0394 C.ar    
  28 F28           -0.8968    -4.9143     0.9454 F       
  29 H29            0.4562     2.3626    -0.1547 H       
  30 H30           -1.1386     2.1907    -0.9264 H       
  31 H31           -0.9964     2.1273     0.8468 H       
  32 H32            0.8930     0.9807    -2.3059 H       
  33 H33           -1.7233    -1.5172    -2.1831 H       
  34 H34           -2.2359    -1.6056     0.9908 H       
  35 H35           -1.0011    -2.6938     1.6758 H       
  36 H36            1.2192    -2.1931    -0.3120 H       
  37 H37            0.6542    -3.8001     0.2044 H       
  38 H38            0.7309    -3.3979    -1.5278 H       
  39 H39           -2.8393    -2.5539    -2.3601 H       
  40 H40           -4.3132    -6.4820    -1.5330 H       
  41 H41           -2.6520    -6.7219     0.2675 H       
  42 H42           -5.1541    -3.5542    -3.1496 H       
  43 H43           -2.5937    -7.3294    -3.8332 H       
  44 H44           -0.4825    -7.5644    -5.0785 H       
  45 H45           -0.0310    -6.1191    -7.0203 H       
  46 H46           -1.6911    -4.4394    -7.7173 H       
  47 H47           -3.8044    -4.2076    -6.4748 H       
@<TRIPOS>BOND
   1    1    7 1
   2    1   29 1
   3    1   30 1
   4    1   31 1
   5    2    8 2
   6    2   32 1
   7    3    4 1
   8    3    8 1
   9    3   33 1
  10    4    5 1
  11    4    9 1
  12    4   12 1
  13    5    6 1
  14    5   34 1
  15    5   35 1
  16    6    7 am
  17    6   10 2
  18    6   11 2
  19    7    8 1
  20    9   36 1
  21    9   37 1
  22    9   38 1
  23   12   27 ar
  24   12   13 ar
  25   13   14 ar
  26   13   39 1
  27   14   15 ar
  28   14   17 1
  29   15   16 ar
  30   15   40 1
  31   16   27 ar
  32   16   41 1
  33   17   18 am
  34   17   42 1
  35   18   19 1
  36   18   25 2
  37   18   26 2
  38   19   20 ar
  39   19   24 ar
  40   20   21 ar
  41   20   43 1
  42   21   22 ar
  43   21   44 1
  44   22   23 ar
  45   22   45 1
  46   23   24 ar
  47   23   46 1
  48   24   47 1
  49   27   28 1

#	End of record

