#	Name: ASD03430281
#	Creating user name:	WinNT
#	Creation time:	15. 06. 2019 20:40

#	Modifying user name:	WinNT
#	Modification time:	15. 06. 2019 20:40

#	Program:	/corina/corina34_cracker 3.40 0067  02.08.2006

@<TRIPOS>MOLECULE
ASD03430281
  56   61    0    0    0
SMALL
NO_CHARGES


@<TRIPOS>ATOM
   1 C1            -0.0172     1.3783     0.0316 C.ar    
   2 C2             0.0010    -0.0036     0.0298 C.ar    
   3 C3             1.2012    -0.6814     0.0043 C.ar    
   4 C4             2.4080     0.0132    -0.0087 C.ar    
   5 C5             2.3849     1.4042    -0.0119 C.ar    
   6 C6             1.1786     2.0825     0.0078 C.ar    
   7 O7             3.4697    -0.8412    -0.0038 O.3     
   8 C8             1.5491    -2.1454    -0.0295 C.3     
   9 C9             3.0314    -2.1462    -0.4283 C.3     
  10 C10            0.4333    -3.8579     1.0395 C.ar    
  11 C11            1.3246    -2.8177     1.2922 C.ar    
  12 C12            0.7070    -2.9076    -1.0121 C.2     
  13 N13            0.0921    -3.8834    -0.3148 N.am    
  14 O14            0.6007    -2.6877    -2.2001 O.2     
  15 C15            1.8018    -2.5980     2.5646 C.ar    
  16 C16            1.3975    -3.4133     3.6071 C.ar    
  17 C17            0.5133    -4.4489     3.3677 C.ar    
  18 C18            0.0321    -4.6733     2.0944 C.ar    
  19 C19           -0.8268    -4.8579    -0.9083 C.3     
  20 C20           -2.2550    -4.3119    -0.8524 C.3     
  21 C21           -3.2299    -5.3302    -1.4747 C.3     
  22 C22           -4.2315    -5.6413    -0.3360 C.3     
  23 C23           -4.0651    -4.4085     0.5886 C.3     
  24 O24           -2.6521    -4.1212     0.5159 O.3     
  25 O25            1.1649     3.4414     0.0038 O.3     
  26 C26           -0.1110     4.0770    -0.0972 C.3     
  27 C27           -0.7431     4.2316     1.2985 C.3     
  28 C28            0.0488     5.5194    -0.6301 C.3     
  29 C29           -0.9867     6.3139     0.2048 C.3     
  30 N30           -0.8993     5.6814     1.5459 N.3     
  31 H31           -0.9582     1.9081     0.0469 H       
  32 H32           -0.9279    -0.5542     0.0489 H       
  33 H33            3.3124     1.9573    -0.0295 H       
  34 H34            3.1420    -2.2598    -1.5067 H       
  35 H35            3.5745    -2.9284     0.1021 H       
  36 H36            2.4927    -1.7887     2.7494 H       
  37 H37            1.7721    -3.2413     4.6054 H       
  38 H38            0.1980    -5.0853     4.1813 H       
  39 H39           -0.6583    -5.4842     1.9151 H       
  40 H40           -0.5464    -5.0363    -1.9464 H       
  41 H41           -0.7734    -5.7935    -0.3516 H       
  42 H42           -2.3117    -3.3668    -1.3923 H       
  43 H43           -3.7468    -4.8912    -2.3280 H       
  44 H44           -2.6986    -6.2340    -1.7730 H       
  45 H45           -5.2496    -5.7049    -0.7201 H       
  46 H46           -3.9558    -6.5582     0.1849 H       
  47 H47           -4.6478    -3.5667     0.2145 H       
  48 H48           -4.3550    -4.6533     1.6105 H       
  49 H49           -0.7688     3.5021    -0.7489 H       
  50 H50           -1.7178     3.7440     1.3207 H       
  51 H51           -0.0890     3.7945     2.0529 H       
  52 H52            1.0577     5.8890    -0.4462 H       
  53 H53           -0.1932     5.5674    -1.6918 H       
  54 H54           -0.7115     7.3673     0.2576 H       
  55 H55           -1.9874     6.1970    -0.2112 H       
  56 H56           -1.7291     5.8683     2.0886 H       
@<TRIPOS>BOND
   1    1    2 ar
   2    1    6 ar
   3    1   31 1
   4    2    3 ar
   5    2   32 1
   6    3    4 ar
   7    3    8 1
   8    4    5 ar
   9    4    7 1
  10    5    6 ar
  11    5   33 1
  12    6   25 1
  13    7    9 1
  14    8    9 1
  15    8   11 1
  16    8   12 1
  17    9   34 1
  18    9   35 1
  19   10   11 ar
  20   10   13 1
  21   10   18 ar
  22   11   15 ar
  23   12   13 am
  24   12   14 2
  25   13   19 1
  26   15   16 ar
  27   15   36 1
  28   16   17 ar
  29   16   37 1
  30   17   18 ar
  31   17   38 1
  32   18   39 1
  33   19   20 1
  34   19   40 1
  35   19   41 1
  36   20   21 1
  37   20   24 1
  38   20   42 1
  39   21   22 1
  40   21   43 1
  41   21   44 1
  42   22   23 1
  43   22   45 1
  44   22   46 1
  45   23   24 1
  46   23   47 1
  47   23   48 1
  48   25   26 1
  49   26   27 1
  50   26   28 1
  51   26   49 1
  52   27   30 1
  53   27   50 1
  54   27   51 1
  55   28   29 1
  56   28   52 1
  57   28   53 1
  58   29   30 1
  59   29   54 1
  60   29   55 1
  61   30   56 1

#	End of record

