#	Name: ASD01180301
#	Creating user name:	WinNT
#	Creation time:	15. 06. 2019 19:07

#	Modifying user name:	WinNT
#	Modification time:	15. 06. 2019 19:07

#	Program:	/corina/corina34_cracker 3.40 0067  02.08.2006

@<TRIPOS>MOLECULE
ASD01180301
  69   71    0    0    0
SMALL
NO_CHARGES


@<TRIPOS>ATOM
   1 C1            -0.0184     1.5028     0.0103 C.2     
   2 C2             0.0021    -0.0041     0.0020 C.3     
   3 C3             1.4513    -0.4944    -0.0145 C.3     
   4 O4             1.0197     2.1211     0.0037 O.2     
   5 O5            -1.1898     2.1580     0.0194 O.3     
   6 C6             2.6473    -2.6171    -0.0373 C.2     
   7 O7             3.6919    -1.9949    -0.0439 O.2     
   8 N8             1.4712    -1.9592    -0.0225 N.am    
   9 C9             2.7037    -6.7740    -0.0593 C.ar    
  10 N10            3.8547    -6.1143    -0.0672 N.ar    
  11 C11            3.8796    -4.7949    -0.0607 C.ar    
  12 C12            2.6673    -4.0925    -0.0454 C.ar    
  13 C13            1.4746    -4.8276    -0.0375 C.ar    
  14 N14            1.5353    -6.1458    -0.0447 N.ar    
  15 N15            2.7224    -8.1531    -0.0723 N.pl3   
  16 C16            1.4638    -8.9028    -0.0639 C.3     
  17 C17            0.9438    -9.0425    -1.4960 C.3     
  18 C18            0.5878    -7.6600    -2.0464 C.3     
  19 C19            0.1865    -7.7847    -3.5176 C.3     
  20 C20           -0.5796    -7.0779    -1.2469 C.3     
  21 C21            2.1295   -12.7862     1.5961 C.ar    
  22 C22            0.9695   -12.0810     1.9103 C.ar    
  23 C23            0.7596   -10.8278     1.3713 C.ar    
  24 C24            1.6983   -10.2717     0.5211 C.ar    
  25 C25            2.8513   -10.9676     0.2055 C.ar    
  26 C26            3.0715   -12.2214     0.7387 C.ar    
  27 C27            2.3635   -14.1314     2.1773 C.ar    
  28 C28            2.4089   -15.2520     1.3506 C.ar    
  29 C29            2.6269   -16.5008     1.8966 C.ar    
  30 C30            2.7997   -16.6409     3.2618 C.ar    
  31 C31            2.7551   -15.5319     4.0872 C.ar    
  32 C32            2.5444   -14.2776     3.5512 C.ar    
  33 C33            3.0368   -18.0071     3.8521 C.3     
  34 F34            4.4109   -18.2679     3.8869 F       
  35 F35            2.5212   -18.0493     5.1519 F       
  36 F36            2.3987   -18.9722     3.0656 F       
  37 C37            4.3286   -12.9780     0.3947 C.3     
  38 C38           -0.0541   -12.6855     2.8364 C.3     
  39 H39           -0.4983    -0.3791     0.8948 H       
  40 H40           -0.5153    -0.3696    -0.8850 H       
  41 H41            1.9516    -0.1193    -0.9073 H       
  42 H42            1.9686    -0.1289     0.8726 H       
  43 H43           -1.1523     3.1243     0.0245 H       
  44 H44            0.6378    -2.4556    -0.0172 H       
  45 H45            4.8203    -4.2644    -0.0669 H       
  46 H46            0.5199    -4.3230    -0.0253 H       
  47 H47            3.5688    -8.6266    -0.0870 H       
  48 H48            0.7281    -8.3710     0.5395 H       
  49 H49            1.7148    -9.4945    -2.1200 H       
  50 H50            0.0560    -9.6749    -1.5002 H       
  51 H51            1.4517    -7.0011    -1.9601 H       
  52 H52           -0.6774    -8.4436    -3.6040 H       
  53 H53           -0.0671    -6.7998    -3.9097 H       
  54 H54            1.0182    -8.1994    -4.0872 H       
  55 H55           -1.4436    -7.7369    -1.3333 H       
  56 H56           -0.2937    -6.9891    -0.1988 H       
  57 H57           -0.8333    -6.0930    -1.6391 H       
  58 H58           -0.1391   -10.2803     1.6141 H       
  59 H59            3.5808   -10.5289    -0.4592 H       
  60 H60            2.2735   -15.1438     0.2846 H       
  61 H61            2.6623   -17.3701     1.2567 H       
  62 H62            2.8902   -15.6471     5.1525 H       
  63 H63            2.5149   -13.4117     4.1959 H       
  64 H64            4.1550   -13.5866    -0.4927 H       
  65 H65            5.1355   -12.2718     0.1989 H       
  66 H66            4.6045   -13.6227     1.2292 H       
  67 H67            0.1759   -12.4057     3.8645 H       
  68 H68           -1.0454   -12.3170     2.5726 H       
  69 H69           -0.0331   -13.7713     2.7420 H       
@<TRIPOS>BOND
   1    1    2 1
   2    1    4 2
   3    1    5 1
   4    2    3 1
   5    2   39 1
   6    2   40 1
   7    3    8 1
   8    3   41 1
   9    3   42 1
  10    5   43 1
  11    6    7 2
  12    6    8 am
  13    6   12 1
  14    8   44 1
  15    9   10 ar
  16    9   14 ar
  17    9   15 1
  18   10   11 ar
  19   11   12 ar
  20   11   45 1
  21   12   13 ar
  22   13   14 ar
  23   13   46 1
  24   15   16 1
  25   15   47 1
  26   16   17 1
  27   16   24 1
  28   16   48 1
  29   17   18 1
  30   17   49 1
  31   17   50 1
  32   18   19 1
  33   18   20 1
  34   18   51 1
  35   19   52 1
  36   19   53 1
  37   19   54 1
  38   20   55 1
  39   20   56 1
  40   20   57 1
  41   21   22 ar
  42   21   26 ar
  43   21   27 1
  44   22   23 ar
  45   22   38 1
  46   23   24 ar
  47   23   58 1
  48   24   25 ar
  49   25   26 ar
  50   25   59 1
  51   26   37 1
  52   27   28 ar
  53   27   32 ar
  54   28   29 ar
  55   28   60 1
  56   29   30 ar
  57   29   61 1
  58   30   31 ar
  59   30   33 1
  60   31   32 ar
  61   31   62 1
  62   32   63 1
  63   33   34 1
  64   33   35 1
  65   33   36 1
  66   37   64 1
  67   37   65 1
  68   37   66 1
  69   38   67 1
  70   38   68 1
  71   38   69 1

#	End of record

