#	Name: ASD01870359
#	Creating user name:	WinNT
#	Creation time:	15. 06. 2019 19:39

#	Modifying user name:	WinNT
#	Modification time:	15. 06. 2019 19:39

#	Program:	/corina/corina34_cracker 3.40 0067  02.08.2006

@<TRIPOS>MOLECULE
ASD01870359
  54   58    0    0    0
SMALL
NO_CHARGES


@<TRIPOS>ATOM
   1 N1            -0.0179     1.4666     0.0101 N.am    
   2 C2             0.0021    -0.0041     0.0020 C.3     
   3 C3             1.1293     2.1740     0.0030 C.2     
   4 C4             1.0857     3.6803     0.0115 C.3     
   5 O5             2.1967     1.5983    -0.0103 O.2     
   6 C6             2.4763     4.3407     0.0017 C.3     
   7 N7             1.9076     5.2908    -0.9739 N.am    
   8 C8             0.8907     4.3026    -1.3830 C.3     
   9 S9             2.2664     6.8425    -1.4275 S.o2    
  10 C10            3.4250     6.7442    -2.7514 C.ar    
  11 C11            4.7918     6.7214    -2.4817 C.ar    
  12 O12            1.0740     7.3858    -1.9773 O.2     
  13 O13            2.9563     7.4310    -0.3334 O.2     
  14 C14            2.9840     6.6847    -4.0426 C.ar    
  15 C15            3.9439     6.6071    -5.0694 C.ar    
  16 C16            5.3186     6.5939    -4.7253 C.ar    
  17 N17            5.6830     6.6489    -3.4402 N.ar    
  18 C18           -0.8911    -0.5093     1.1401 C.3     
  19 N19           -2.2246     0.0945     1.0166 N.3     
  20 C20           -2.1639     1.5549     1.1634 C.3     
  21 C21           -1.3229     2.1448     0.0200 C.3     
  22 C22           -3.1111    -0.4624     1.9335 C.ar    
  23 C23           -4.4382    -0.0378     1.9944 C.ar    
  24 C24           -2.6971    -1.4639     2.8116 C.ar    
  25 C25           -3.6064    -1.9896     3.7049 C.ar    
  26 N26           -4.8531    -1.5568     3.7352 N.ar    
  27 C27           -5.2847    -0.6150     2.9173 C.ar    
  28 C28            3.5660     6.5424    -6.4199 C.ar    
  29 C29            4.5248     6.4678    -7.3841 C.ar    
  30 C30            5.8767     6.4543    -7.0482 C.ar    
  31 C31            6.2784     6.5165    -5.7492 C.ar    
  32 H32           -0.3779    -0.3702    -0.9518 H       
  33 H33            1.0222    -0.3573     0.1528 H       
  34 H34            0.4145     4.0817     0.7708 H       
  35 H35            2.7518     4.7987     0.9517 H       
  36 H36            3.2612     3.7060    -0.4094 H       
  37 H37            1.2098     3.6567    -2.2009 H       
  38 H38           -0.0998     4.7302    -1.5387 H       
  39 H39            5.1259     6.7650    -1.4556 H       
  40 H40            1.9282     6.6965    -4.2696 H       
  41 H41           -0.9763    -1.5943     1.0813 H       
  42 H42           -0.4526    -0.2298     2.0981 H       
  43 H43           -3.1722     1.9669     1.1215 H       
  44 H44           -1.7077     1.8056     2.1210 H       
  45 H45           -1.1778     3.2123     0.1853 H       
  46 H46           -1.8328     1.9844    -0.9299 H       
  47 H47           -4.7978     0.7326     1.3283 H       
  48 H48           -1.6786    -1.8228     2.7918 H       
  49 H49           -3.2948    -2.7657     4.3883 H       
  50 H50           -6.3128    -0.2892     2.9747 H       
  51 H51            2.5211     6.5514    -6.6926 H       
  52 H52            4.2332     6.4180    -8.4228 H       
  53 H53            6.6181     6.3942    -7.8312 H       
  54 H54            7.3306     6.5049    -5.5060 H       
@<TRIPOS>BOND
   1    1    2 1
   2    1    3 am
   3    1   21 1
   4    2   18 1
   5    2   32 1
   6    2   33 1
   7    3    4 1
   8    3    5 2
   9    4    6 1
  10    4    8 1
  11    4   34 1
  12    6    7 1
  13    6   35 1
  14    6   36 1
  15    7    8 1
  16    7    9 am
  17    8   37 1
  18    8   38 1
  19    9   10 1
  20    9   12 2
  21    9   13 2
  22   10   14 ar
  23   10   11 ar
  24   11   17 ar
  25   11   39 1
  26   14   15 ar
  27   14   40 1
  28   15   16 ar
  29   15   28 ar
  30   16   17 ar
  31   16   31 ar
  32   18   19 1
  33   18   41 1
  34   18   42 1
  35   19   20 1
  36   19   22 1
  37   20   21 1
  38   20   43 1
  39   20   44 1
  40   21   45 1
  41   21   46 1
  42   22   23 ar
  43   22   24 ar
  44   23   27 ar
  45   23   47 1
  46   24   25 ar
  47   24   48 1
  48   25   26 ar
  49   25   49 1
  50   26   27 ar
  51   27   50 1
  52   28   29 ar
  53   28   51 1
  54   29   30 ar
  55   29   52 1
  56   30   31 ar
  57   30   53 1
  58   31   54 1

#	End of record

