#	Name: ASD05143024
#	Creating user name:	WinNT
#	Creation time:	15. 06. 2019 20:57

#	Modifying user name:	WinNT
#	Modification time:	15. 06. 2019 20:57

#	Program:	/corina/corina34_cracker 3.40 0067  02.08.2006

@<TRIPOS>MOLECULE
ASD05143024
 146  149    0    0    0
SMALL
NO_CHARGES


@<TRIPOS>ATOM
   1 C1            -1.9762     2.7244     4.9955 C.2     
   2 C2            -1.4574     1.6144     5.8728 C.3     
   3 N3            -1.1181     3.4602     4.2615 N.am    
   4 O4            -3.1664     2.9524     4.9462 O.2     
   5 C5            -1.6225     4.5393     3.4086 C.3     
   6 C6            -2.5919     3.9619     2.3753 C.3     
   7 C7            -2.3404     5.5566     4.2575 C.2     
   8 C8            -1.8346     3.0227     1.4344 C.3     
   9 C9            -2.8040     2.4453     0.4011 C.3     
  10 N10           -2.0789     1.5460    -0.4998 N.pl3   
  11 C11           -2.7471     0.9059    -1.5166 C.2     
  12 N12           -4.0960     1.1097    -1.6879 N.pl3   
  13 N13           -2.1020     0.1058    -2.3181 N.2     
  14 O14           -2.7430     5.2509     5.3599 O.2     
  15 N15           -2.5352     6.8062     3.7916 N.am    
  16 C16           -3.2331     7.7952     4.6168 C.3     
  17 C17           -2.2150     8.7621     5.2245 C.3     
  18 C18           -1.0460     7.9696     5.8128 C.3     
  19 C19           -0.0067     7.7401     4.7461 C.2     
  20 O20           -0.3306     7.3684     3.6380 O.2     
  21 N21            1.3072     7.9589     5.0500 N.am    
  22 C22            2.2638     7.7040     3.9489 C.3     
  23 C23            2.4160     8.9846     3.1257 C.3     
  24 C24            2.9388     8.6347     1.7310 C.3     
  25 C25            3.9241     9.7107     1.2701 C.3     
  26 N26            3.7553     9.9207    -0.1818 N.am    
  27 C27            5.3336     9.2599     1.5546 C.2     
  28 N28            5.8408     9.3775     2.7978 N.am    
  29 O29            6.0117     8.7912     0.6649 O.2     
  30 C30            2.9509    10.9523    -0.5575 C.2     
  31 O31            2.4183    11.6515     0.2782 O.2     
  32 C32            2.7308    11.2152    -2.0250 C.3     
  33 N33            1.5469    12.0924    -2.1743 N.am    
  34 C34            3.9615    11.9085    -2.6131 C.3     
  35 C35            0.4126    11.4739    -2.6183 C.2     
  36 O36            0.4135    10.2872    -2.8691 O.2     
  37 C37           -0.8401    12.2939    -2.7902 C.3     
  38 N38           -2.0129    11.4068    -2.6574 N.am    
  39 C39           -0.8939    13.3795    -1.7134 C.3     
  40 C40           -3.0275    11.8526    -1.8667 C.2     
  41 O41           -2.9451    12.9251    -1.3065 O.2     
  42 C42           -4.2547    10.9944    -1.6979 C.3     
  43 C43            3.7894    12.0592    -4.1026 C.2     
  44 C44            3.0887    13.1444    -4.7934 C.ar    
  45 C45            3.1892    12.8593    -6.1673 C.ar    
  46 N46            3.9000    11.6863    -6.2878 N.pl3   
  47 C47            4.2540    11.2275    -5.0483 C.2     
  48 C48            2.4118    14.2888    -4.3670 C.ar    
  49 C49            1.8498    15.1270    -5.2879 C.ar    
  50 C50            1.9458    14.8500    -6.6449 C.ar    
  51 C51            2.6097    13.7271    -7.0875 C.ar    
  52 N52           -4.7131    11.0928    -0.2934 N.am    
  53 C53           -3.9125     9.5395    -2.0254 C.3     
  54 C54           -5.1582     8.6967    -1.9296 C.ar    
  55 C55           -6.1664     8.8269    -2.8865 C.ar    
  56 C56           -7.3172     8.0416    -2.7903 C.ar    
  57 C57           -7.4505     7.1435    -1.7522 C.ar    
  58 C58           -6.4474     7.0198    -0.8068 C.ar    
  59 C59           -5.3023     7.7906    -0.8992 C.ar    
  60 C60           -4.2080     8.5642     3.7626 C.2     
  61 N61           -3.7292     9.3703     2.7757 N.am    
  62 O62           -5.4020     8.4660     3.9516 O.2     
  63 C63           -4.7315    10.0986     1.9724 C.3     
  64 C64           -4.8271    11.5454     2.4609 C.3     
  65 C65           -4.3033    10.0807     0.5277 C.2     
  66 C66           -5.3656    11.5656     3.8929 C.3     
  67 N67           -5.4573    12.9547     4.3620 N.3     
  68 O68           -3.6074     9.1835     0.1014 O.2     
  69 C69           -0.7638    12.7345    -0.3321 C.3     
  70 C70           -0.9427    13.8028     0.7485 C.3     
  71 N71           -0.8180    13.1853     2.0711 N.pl3   
  72 C72           -0.9430    13.9548     3.2036 C.2     
  73 N73           -1.1850    15.3038     3.0948 N.pl3   
  74 N74           -0.8321    13.4053     4.3803 N.2     
  75 C75           -6.0213     9.7619    -3.9614 C.1     
  76 N76           -5.9063    10.5035    -4.8142 N.1     
  77 H77           -1.2333     2.0091     6.8639 H       
  78 H78           -2.2129     0.8331     5.9552 H       
  79 H79           -0.5506     1.1981     5.4340 H       
  80 H80           -0.1666     3.2752     4.2978 H       
  81 H81           -0.7878     5.0177     2.8962 H       
  82 H82           -3.3793     3.4074     2.8859 H       
  83 H83           -3.0348     4.7741     1.7989 H       
  84 H84           -1.0472     3.5772     0.9238 H       
  85 H85           -1.3917     2.2104     2.0108 H       
  86 H86           -3.5914     1.8908     0.9117 H       
  87 H87           -3.2469     3.2576    -0.1753 H       
  88 H88           -1.1272     1.4023    -0.3790 H       
  89 H89           -4.5761     1.7051    -1.0913 H       
  90 H90           -4.5675     0.6580    -2.4052 H       
  91 H91           -2.5735    -0.3458    -3.0355 H       
  92 H92           -2.2132     7.0507     2.9098 H       
  93 H93           -3.7726     7.2862     5.4156 H       
  94 H94           -1.8451     9.4341     4.4502 H       
  95 H95           -2.6924     9.3442     6.0128 H       
  96 H96           -0.6040     8.5312     6.6358 H       
  97 H97           -1.4069     7.0092     6.1809 H       
  98 H98            1.5936     8.2606     5.9263 H       
  99 H99            3.2307     7.4185     4.3632 H       
 100 H100           1.8850     6.9036     3.3133 H       
 101 H101           1.4477     9.4773     3.0377 H       
 102 H102           3.1203     9.6532     3.6206 H       
 103 H103           3.4442     7.6695     1.7641 H       
 104 H104           2.1037     8.5835     1.0323 H       
 105 H105           3.7223    10.6417     1.7998 H       
 106 H106           4.1946     9.3528    -0.8340 H       
 107 H107           5.2985     9.7524     3.5093 H       
 108 H108           6.7480     9.0874     2.9809 H       
 109 H109           2.5557    10.2725    -2.5435 H       
 110 H110           1.5751    13.0405    -1.9712 H       
 111 H111           4.0755    12.8929    -2.1591 H       
 112 H112           4.8486    11.3091    -2.4086 H       
 113 H113          -0.8416    12.7559    -3.7775 H       
 114 H114          -2.0580    10.5501    -3.1101 H       
 115 H115          -0.0748    14.0824    -1.8648 H       
 116 H116          -1.8442    13.9094    -1.7789 H       
 117 H117          -5.0416    11.3464    -2.3649 H       
 118 H118           4.1203    11.2519    -7.1267 H       
 119 H119           4.8172    10.3256    -4.8585 H       
 120 H120           2.3325    14.5103    -3.3129 H       
 121 H121           1.3264    16.0121    -4.9576 H       
 122 H122           1.4961    15.5220    -7.3608 H       
 123 H123           2.6792    13.5204    -8.1453 H       
 124 H124          -5.2657    11.8250     0.0219 H       
 125 H125          -3.5102     9.4796    -3.0367 H       
 126 H126          -3.1701     9.1725    -1.3167 H       
 127 H127          -8.1011     8.1376    -3.5270 H       
 128 H128          -8.3399     6.5355    -1.6766 H       
 129 H129          -6.5571     6.3152     0.0043 H       
 130 H130          -4.5233     7.6890    -0.1581 H       
 131 H131          -2.7780     9.4619     2.6088 H       
 132 H132          -5.7027     9.6140     2.0735 H       
 133 H133          -3.8379    12.0026     2.4382 H       
 134 H134          -5.5008    12.1044     1.8115 H       
 135 H135          -6.3547    11.1083     3.9156 H       
 136 H136          -4.6919    11.0066     4.5423 H       
 137 H137          -5.8107    12.9949     5.3062 H       
 138 H138          -4.5652    13.4204     4.2896 H       
 139 H139          -1.5298    11.9679    -0.2154 H       
 140 H140           0.2224    12.2806    -0.2345 H       
 141 H141          -0.1767    14.5695     0.6318 H       
 142 H142          -1.9289    14.2567     0.6509 H       
 143 H143          -0.6473    12.2335     2.1478 H       
 144 H144          -1.2675    15.7127     2.2191 H       
 145 H145          -1.2732    15.8467     3.8938 H       
 146 H146          -0.9203    13.9482     5.1793 H       
@<TRIPOS>BOND
   1    1    2 1
   2    1    3 am
   3    1    4 2
   4    2   77 1
   5    2   78 1
   6    2   79 1
   7    3    5 1
   8    3   80 1
   9    5    6 1
  10    5    7 1
  11    5   81 1
  12    6    8 1
  13    6   82 1
  14    6   83 1
  15    7   14 2
  16    7   15 am
  17    8    9 1
  18    8   84 1
  19    8   85 1
  20    9   10 1
  21    9   86 1
  22    9   87 1
  23   10   11 1
  24   10   88 1
  25   11   12 1
  26   11   13 2
  27   12   89 1
  28   12   90 1
  29   13   91 1
  30   15   16 1
  31   15   92 1
  32   16   17 1
  33   16   60 1
  34   16   93 1
  35   17   18 1
  36   17   94 1
  37   17   95 1
  38   18   19 1
  39   18   96 1
  40   18   97 1
  41   19   20 2
  42   19   21 am
  43   21   22 1
  44   21   98 1
  45   22   23 1
  46   22   99 1
  47   22  100 1
  48   23   24 1
  49   23  101 1
  50   23  102 1
  51   24   25 1
  52   24  103 1
  53   24  104 1
  54   25   26 1
  55   25   27 1
  56   25  105 1
  57   26   30 am
  58   26  106 1
  59   27   28 am
  60   27   29 2
  61   28  107 1
  62   28  108 1
  63   30   31 2
  64   30   32 1
  65   32   33 1
  66   32   34 1
  67   32  109 1
  68   33   35 am
  69   33  110 1
  70   34   43 1
  71   34  111 1
  72   34  112 1
  73   35   36 2
  74   35   37 1
  75   37   38 1
  76   37   39 1
  77   37  113 1
  78   38   40 am
  79   38  114 1
  80   39   69 1
  81   39  115 1
  82   39  116 1
  83   40   41 2
  84   40   42 1
  85   42   52 1
  86   42   53 1
  87   42  117 1
  88   43   44 1
  89   43   47 2
  90   44   45 ar
  91   44   48 ar
  92   45   46 1
  93   45   51 ar
  94   46   47 1
  95   46  118 1
  96   47  119 1
  97   48   49 ar
  98   48  120 1
  99   49   50 ar
 100   49  121 1
 101   50   51 ar
 102   50  122 1
 103   51  123 1
 104   52   65 am
 105   52  124 1
 106   53   54 1
 107   53  125 1
 108   53  126 1
 109   54   55 ar
 110   54   59 ar
 111   55   56 ar
 112   55   75 1
 113   56   57 ar
 114   56  127 1
 115   57   58 ar
 116   57  128 1
 117   58   59 ar
 118   58  129 1
 119   59  130 1
 120   60   61 am
 121   60   62 2
 122   61   63 1
 123   61  131 1
 124   63   64 1
 125   63   65 1
 126   63  132 1
 127   64   66 1
 128   64  133 1
 129   64  134 1
 130   65   68 2
 131   66   67 1
 132   66  135 1
 133   66  136 1
 134   67  137 1
 135   67  138 1
 136   69   70 1
 137   69  139 1
 138   69  140 1
 139   70   71 1
 140   70  141 1
 141   70  142 1
 142   71   72 1
 143   71  143 1
 144   72   73 1
 145   72   74 2
 146   73  144 1
 147   73  145 1
 148   74  146 1
 149   75   76 3

#	End of record

