#	Name: ASD07930100
#	Creating user name:	WinNT
#	Creation time:	15. 06. 2019 21:11

#	Modifying user name:	WinNT
#	Modification time:	15. 06. 2019 21:11

#	Program:	/corina/corina34_cracker 3.40 0067  02.08.2006

@<TRIPOS>MOLECULE
ASD07930100
  37   38    0    0    0
SMALL
NO_CHARGES


@<TRIPOS>ATOM
   1 C1            -0.0168     1.3887     0.0097 C.ar    
   2 C2             0.0021    -0.0041     0.0020 C.ar    
   3 C3             1.2193    -0.6659    -0.0132 C.ar    
   4 C4             2.3894     0.0947    -0.0203 C.ar    
   5 C5             2.2923     1.4941    -0.0119 C.ar    
   6 N6             1.1126     2.0856     0.0026 N.ar    
   7 C7            -1.3164     2.1024     0.0197 C.2     
   8 O8            -2.3614     1.4688     0.0212 O.co2   
   9 O9            -1.3425     3.3241     0.0265 O.co2   
  10 O10            4.0692    -2.0140    -0.0467 O.3     
  11 B11            3.7943    -0.6059    -0.0371 Du      
  12 O12            5.0844     0.0217    -0.0465 O.3     
  13 C13            5.8748    -0.7816    -0.9480 C.3     
  14 C14            5.1865    -2.1618    -0.9481 C.3     
  15 C15            6.1470    -3.2366    -0.4349 C.3     
  16 C16            4.6946    -2.5121    -2.3539 C.3     
  17 C17            5.8587    -0.1777    -2.3536 C.3     
  18 C18            7.3111    -0.9022    -0.4346 C.3     
  19 O19            3.4194     2.2449    -0.0182 O.3     
  20 C20            3.2534     3.6642    -0.0090 C.3     
  21 H21           -0.9224    -0.5623     0.0082 H       
  22 H22            1.2616    -1.7451    -0.0191 H       
  23 H23            5.6284    -4.1941    -0.3864 H       
  24 H24            6.9970    -3.3177    -1.1124 H       
  25 H25            6.4997    -2.9636     0.5596 H       
  26 H26            4.0251    -1.7292    -2.7101 H       
  27 H27            5.5478    -2.5947    -3.0273 H       
  28 H28            4.1606    -3.4619    -2.3259 H       
  29 H29            6.2960     0.8203    -2.3253 H       
  30 H30            6.4381    -0.8093    -3.0271 H       
  31 H31            4.8306    -0.1140    -2.7099 H       
  32 H32            7.3052    -1.3484     0.5598 H       
  33 H33            7.8874    -1.5323    -1.1122 H       
  34 H34            7.7638     0.0881    -0.3859 H       
  35 H35            2.6927     3.9702    -0.8922 H       
  36 H36            2.7091     3.9606     0.8876 H       
  37 H37            4.2319     4.1445    -0.0154 H       
@<TRIPOS>BOND
   1    1    2 ar
   2    1    6 ar
   3    1    7 1
   4    2    3 ar
   5    2   21 1
   6    3    4 ar
   7    3   22 1
   8    4    5 ar
   9    4   11 1
  10    5    6 ar
  11    5   19 1
  12    7    8 ar
  13    7    9 ar
  14   10   11 1
  15   10   14 1
  16   11   12 1
  17   12   13 1
  18   13   14 1
  19   13   17 1
  20   13   18 1
  21   14   15 1
  22   14   16 1
  23   15   23 1
  24   15   24 1
  25   15   25 1
  26   16   26 1
  27   16   27 1
  28   16   28 1
  29   17   29 1
  30   17   30 1
  31   17   31 1
  32   18   32 1
  33   18   33 1
  34   18   34 1
  35   19   20 1
  36   20   35 1
  37   20   36 1
  38   20   37 1

#	End of record

