#	Name: ASD03240643
#	Creating user name:	WinNT
#	Creation time:	15. 06. 2019 20:35

#	Modifying user name:	WinNT
#	Modification time:	15. 06. 2019 20:35

#	Program:	/corina/corina34_cracker 3.40 0067  02.08.2006

@<TRIPOS>MOLECULE
ASD03240643
  68   74    0    0    0
SMALL
NO_CHARGES


@<TRIPOS>ATOM
   1 C1            -0.0552     1.4483     0.0806 C.ar    
   2 C2            -0.0524     0.0688     0.0637 C.ar    
   3 N3             1.0798    -0.6083     0.0349 N.ar    
   4 C4             2.2590    -0.0015     0.0218 C.ar    
   5 C5             2.3306     1.3901     0.0234 C.ar    
   6 C6             1.1551     2.1290     0.0598 C.ar    
   7 N7             3.4181    -0.7726     0.0275 N.pl3   
   8 C8             4.3116    -0.7035     1.0930 C.ar    
   9 C9             4.9659     0.4954     1.3957 C.ar    
  10 C10            4.7363     1.6981     0.5653 C.2     
  11 N11            3.5613     2.0598    -0.0289 N.pl3   
  12 C12            4.5557    -1.8312     1.8654 C.ar    
  13 C13            5.4320    -1.7631     2.9316 C.ar    
  14 C14            6.0709    -0.5743     3.2395 C.ar    
  15 C15            5.8432     0.5544     2.4783 C.ar    
  16 N16            5.6543     2.6001     0.2812 N.2     
  17 C17            5.1243     3.5571    -0.4958 C.2     
  18 C18            3.7939     3.2384    -0.7107 C.2     
  19 C19            2.8188     4.0055    -1.5092 C.ar    
  20 C20            2.7382     5.3938    -1.3740 C.ar    
  21 C21            1.9757     3.3478    -2.4085 C.ar    
  22 C22            1.0670     4.0715    -3.1520 C.ar    
  23 C23            0.9892     5.4457    -3.0089 C.ar    
  24 C24            1.8247     6.1045    -2.1240 C.ar    
  25 C25            5.8349     4.7428    -1.0282 C.ar    
  26 C26           -0.0064     6.2294    -3.8250 C.3     
  27 C27            6.8228     5.3662    -0.2654 C.ar    
  28 N28           -1.0832     5.3915    -4.3693 N.3     
  29 C29           -0.5105     7.5025    -3.1250 C.3     
  30 C30           -0.4260     8.1948    -4.4956 C.3     
  31 C31            0.6437     7.1544    -4.8673 C.3     
  32 C32            7.4825     6.4695    -0.7632 C.ar    
  33 C33            7.1638     6.9613    -2.0238 C.ar    
  34 C34            6.1798     6.3420    -2.7859 C.ar    
  35 C35            5.5214     5.2347    -2.2955 C.ar    
  36 N36            7.8330     8.0796    -2.5253 N.pl3   
  37 C37            8.7758     8.8111    -1.6755 C.3     
  38 C38            7.5922     8.5214    -3.9012 C.3     
  39 H39           -0.9877     1.9926     0.1052 H       
  40 H40           -0.9912    -0.4651     0.0747 H       
  41 H41            1.1817     3.2086     0.0712 H       
  42 H42            3.6049    -1.3641    -0.7182 H       
  43 H43            4.0605    -2.7623     1.6325 H       
  44 H44            5.6195    -2.6432     3.5289 H       
  45 H45            6.7501    -0.5299     4.0779 H       
  46 H46            6.3427     1.4808     2.7206 H       
  47 H47            3.3894     5.9092    -0.6835 H       
  48 H48            2.0357     2.2754    -2.5214 H       
  49 H49            0.4149     3.5645    -3.8478 H       
  50 H50            1.7584     7.1772    -2.0175 H       
  51 H51            7.0703     4.9850     0.7143 H       
  52 H52           -0.7083     4.5817    -4.8403 H       
  53 H53           -1.7318     5.1207    -3.6454 H       
  54 H54           -1.5270     7.4164    -2.7413 H       
  55 H55            0.1881     7.9024    -2.3900 H       
  56 H56           -1.3396     8.1112    -5.0841 H       
  57 H57           -0.0446     9.2148    -4.4467 H       
  58 H58            1.6577     7.4592    -4.6087 H       
  59 H59            0.5589     6.7873    -5.8902 H       
  60 H60            8.2474     6.9524    -0.1732 H       
  61 H61            5.9342     6.7261    -3.7650 H       
  62 H62            4.7570     4.7539    -2.8879 H       
  63 H63            9.7737     8.3884    -1.7924 H       
  64 H64            8.7894     9.8610    -1.9680 H       
  65 H65            8.4658     8.7281    -0.6338 H       
  66 H66            6.9405     7.8065    -4.4035 H       
  67 H67            7.1160     9.5017    -3.8899 H       
  68 H68            8.5411     8.5845    -4.4338 H       
@<TRIPOS>BOND
   1    1    2 ar
   2    1    6 ar
   3    1   39 1
   4    2    3 ar
   5    2   40 1
   6    3    4 ar
   7    4    5 ar
   8    4    7 1
   9    5    6 ar
  10    5   11 1
  11    6   41 1
  12    7    8 1
  13    7   42 1
  14    8    9 ar
  15    8   12 ar
  16    9   10 1
  17    9   15 ar
  18   10   11 1
  19   10   16 2
  20   11   18 1
  21   12   13 ar
  22   12   43 1
  23   13   14 ar
  24   13   44 1
  25   14   15 ar
  26   14   45 1
  27   15   46 1
  28   16   17 1
  29   17   18 2
  30   17   25 1
  31   18   19 1
  32   19   20 ar
  33   19   21 ar
  34   20   24 ar
  35   20   47 1
  36   21   22 ar
  37   21   48 1
  38   22   23 ar
  39   22   49 1
  40   23   24 ar
  41   23   26 1
  42   24   50 1
  43   25   27 ar
  44   25   35 ar
  45   26   29 1
  46   26   28 1
  47   26   31 1
  48   27   32 ar
  49   27   51 1
  50   28   52 1
  51   28   53 1
  52   29   30 1
  53   29   54 1
  54   29   55 1
  55   30   31 1
  56   30   56 1
  57   30   57 1
  58   31   58 1
  59   31   59 1
  60   32   33 ar
  61   32   60 1
  62   33   34 ar
  63   33   36 1
  64   34   35 ar
  65   34   61 1
  66   35   62 1
  67   36   37 1
  68   36   38 1
  69   37   63 1
  70   37   64 1
  71   37   65 1
  72   38   66 1
  73   38   67 1
  74   38   68 1

#	End of record

