#	Name: ASD01320055
#	Creating user name:	WinNT
#	Creation time:	15. 06. 2019 19:15

#	Modifying user name:	WinNT
#	Modification time:	15. 06. 2019 19:15

#	Program:	/corina/corina34_cracker 3.40 0067  02.08.2006

@<TRIPOS>MOLECULE
ASD01320055
  32   34    0    0    0
SMALL
NO_CHARGES


@<TRIPOS>ATOM
   1 C1            -0.0442     1.3391     0.5642 C.ar    
   2 C2            -0.0128    -0.0335     0.3043 C.ar    
   3 C3            -1.1832    -0.7161     0.0449 C.ar    
   4 C4            -2.3976    -0.0274     0.0443 C.ar    
   5 C5            -2.4301     1.3529     0.3061 C.ar    
   6 C6            -1.2451     2.0258     0.5701 C.ar    
   7 O7             1.1130     2.0033     0.8186 O.3     
   8 O8             1.1743    -0.6978     0.3065 O.3     
   9 C9            -3.6686    -0.7217    -0.2289 C.2     
  10 C10           -4.8538     0.0556    -0.2097 C.2     
  11 C11           -4.7760     1.3908     0.0556 C.2     
  12 O12           -3.6094     2.0096     0.3033 O.3     
  13 O13           -3.6994    -1.9193    -0.4629 O.2     
  14 O14           -6.0596    -0.5259    -0.4545 O.3     
  15 C15           -6.0182     2.1849     0.0718 C.ar    
  16 C16           -7.1357     1.7235     0.7734 C.ar    
  17 C17           -8.2971     2.4720     0.7855 C.ar    
  18 C18           -8.3527     3.6836     0.0991 C.ar    
  19 C19           -7.2433     4.1421    -0.5977 C.ar    
  20 C20           -6.0795     3.4038    -0.6097 C.ar    
  21 O21           -9.4961     4.4177     0.1116 O.3     
  22 O22           -9.3862     2.0260     1.4671 O.3     
  23 H23           -1.1601    -1.7768    -0.1568 H       
  24 H24           -1.2598     3.0865     0.7725 H       
  25 H25            1.5427     2.3611     0.0296 H       
  26 H26            1.4232    -1.0554     1.1698 H       
  27 H27           -6.0096    -1.4752    -0.6318 H       
  28 H28           -7.0916     0.7841     1.3043 H       
  29 H29           -7.2910     5.0814    -1.1285 H       
  30 H30           -5.2177     3.7629    -1.1526 H       
  31 H31           -9.5477     5.0530     0.8388 H       
  32 H32           -9.4213     2.3195     2.3878 H       
@<TRIPOS>BOND
   1    1    2 ar
   2    1    7 1
   3    1    6 ar
   4    2    3 ar
   5    2    8 1
   6    3    4 ar
   7    3   23 1
   8    4    5 ar
   9    4    9 1
  10    5    6 ar
  11    5   12 1
  12    6   24 1
  13    7   25 1
  14    8   26 1
  15    9   10 1
  16    9   13 2
  17   10   11 2
  18   10   14 1
  19   11   12 1
  20   11   15 1
  21   14   27 1
  22   15   16 ar
  23   15   20 ar
  24   16   17 ar
  25   16   28 1
  26   17   18 ar
  27   17   22 1
  28   18   19 ar
  29   18   21 1
  30   19   20 ar
  31   19   29 1
  32   20   30 1
  33   21   31 1
  34   22   32 1

#	End of record

