#	Name: ASD01882113
#	Creating user name:	WinNT
#	Creation time:	15. 06. 2019 19:43

#	Modifying user name:	WinNT
#	Modification time:	15. 06. 2019 19:43

#	Program:	/corina/corina34_cracker 3.40 0067  02.08.2006

@<TRIPOS>MOLECULE
ASD01882113
  48   52    0    0    0
SMALL
NO_CHARGES


@<TRIPOS>ATOM
   1 C1            -0.8052    -0.0435     1.1192 C.2     
   2 C2             0.0021    -0.0041     0.0020 C.2     
   3 C3            -0.4108     0.7387    -1.1246 C.2     
   4 C4            -1.5830     1.4023    -1.1067 C.2     
   5 N5            -2.3896     1.3702    -0.0053 N.pl3   
   6 C6            -2.0266     0.6553     1.1068 C.2     
   7 C7            -3.6053     1.9450     0.2683 C.2     
   8 C8            -3.9469     1.5784     1.5213 C.2     
   9 N9            -2.9823     0.7971     2.0164 N.2     
  10 N10            1.2139    -0.6906    -0.0142 N.pl3   
  11 Cl11          -0.3244    -0.9492     2.5200 Cl      
  12 C12           -4.4087     2.8217    -0.6575 C.3     
  13 C13            1.2447    -2.1560     0.0879 C.3     
  14 C14            2.0448    -2.7152    -1.0934 C.3     
  15 C15            3.4197    -2.0505    -1.1323 C.3     
  16 C16            3.2753    -0.5408    -1.3119 C.3     
  17 C17            2.4841     0.0371    -0.1397 C.3     
  18 O18            4.1325    -2.3324     0.0828 O.3     
  19 C19            4.8677    -3.5398    -0.1920 C.3     
  20 C20            5.1271    -3.5389    -1.6807 C.ar    
  21 C21            4.2466    -2.6325    -2.2518 C.ar    
  22 C22            6.0153    -4.2334    -2.4755 C.ar    
  23 C23            6.0282    -4.0237    -3.8423 C.ar    
  24 C24            5.1515    -3.1189    -4.4117 C.ar    
  25 C25            4.2608    -2.4227    -3.6153 C.ar    
  26 C26           -4.1031     4.2913    -0.3612 C.3     
  27 F27           -2.7391     4.5326    -0.5572 F       
  28 F28           -4.8489     5.1051    -1.2206 F       
  29 F29           -4.4418     4.5798     0.9651 F       
  30 H30            0.2152     0.7756    -2.0039 H       
  31 H31           -1.8887     1.9675    -1.9747 H       
  32 H32           -4.8510     1.8662     2.0373 H       
  33 H33           -4.1448     2.5968    -1.6909 H       
  34 H34           -5.4714     2.6336    -0.5047 H       
  35 H35            1.7224    -2.4472     1.0233 H       
  36 H36            0.2273    -2.5460     0.0576 H       
  37 H37            2.1644    -3.7920    -0.9746 H       
  38 H38            1.5141    -2.5080    -2.0228 H       
  39 H39            4.2636    -0.0825    -1.3466 H       
  40 H40            2.7455    -0.3343    -2.2418 H       
  41 H41            2.2853     1.0938    -0.3187 H       
  42 H42            3.0572    -0.0783     0.7803 H       
  43 H43            5.8113    -3.5372     0.3536 H       
  44 H44            4.2752    -4.4116     0.0854 H       
  45 H45            6.6997    -4.9406    -2.0307 H       
  46 H46            6.7236    -4.5666    -4.4652 H       
  47 H47            5.1628    -2.9552    -5.4792 H       
  48 H48            3.5760    -1.7161    -4.0605 H       
@<TRIPOS>BOND
   1    1    2 2
   2    1   11 1
   3    1    6 1
   4    2    3 1
   5    2   10 1
   6    3    4 2
   7    3   30 1
   8    4    5 1
   9    4   31 1
  10    5    6 1
  11    5    7 1
  12    6    9 2
  13    7    8 2
  14    7   12 1
  15    8    9 1
  16    8   32 1
  17   10   13 1
  18   10   17 1
  19   12   26 1
  20   12   33 1
  21   12   34 1
  22   13   14 1
  23   13   35 1
  24   13   36 1
  25   14   15 1
  26   14   37 1
  27   14   38 1
  28   15   16 1
  29   15   18 1
  30   15   21 1
  31   16   17 1
  32   16   39 1
  33   16   40 1
  34   17   41 1
  35   17   42 1
  36   18   19 1
  37   19   20 1
  38   19   43 1
  39   19   44 1
  40   20   21 ar
  41   20   22 ar
  42   21   25 ar
  43   22   23 ar
  44   22   45 1
  45   23   24 ar
  46   23   46 1
  47   24   25 ar
  48   24   47 1
  49   25   48 1
  50   26   27 1
  51   26   28 1
  52   26   29 1

#	End of record

