#	Name: ASD01916653
#	Creating user name:	WinNT
#	Creation time:	15. 06. 2019 20:07

#	Modifying user name:	WinNT
#	Modification time:	15. 06. 2019 20:07

#	Program:	/corina/corina34_cracker 3.40 0067  02.08.2006

@<TRIPOS>MOLECULE
ASD01916653
  43   46    0    0    0
SMALL
NO_CHARGES


@<TRIPOS>ATOM
   1 C1            -0.0166     1.3750     0.0096 C.ar    
   2 C2             0.0021    -0.0041     0.0020 C.ar    
   3 C3             1.2078    -0.6830    -0.0127 C.ar    
   4 C4             2.4026     0.0150    -0.0199 C.ar    
   5 C5             2.3996     1.3942    -0.0129 C.ar    
   6 C6             1.1859     2.0866     0.0019 C.ar    
   7 C7             1.1746     3.5185     0.0093 C.1     
   8 C8             1.1654     4.6925     0.0153 C.1     
   9 C9             1.1541     6.1244     0.0226 C.ar    
  10 C10           -0.0597     6.8169     0.0433 C.ar    
  11 C11            2.3565     6.8360     0.0149 C.ar    
  12 C12            2.3378     8.2152     0.0225 C.ar    
  13 C13            1.1322     8.8940     0.0382 C.ar    
  14 C14           -0.0627     8.1959     0.0507 C.ar    
  15 C15           -1.3704     8.9445     0.0725 C.3     
  16 C16           -1.4880    11.2295     0.0532 C.2     
  17 N17           -1.2434    10.1838     0.8547 N.am    
  18 C18           -1.7350     9.4384    -1.3408 C.3     
  19 O19           -1.7747    10.8889    -1.2082 O.3     
  20 C20           -3.0839     8.9086    -1.7540 C.ar    
  21 C21           -4.2335     9.5821    -1.3856 C.ar    
  22 C22           -3.1714     7.7521    -2.5063 C.ar    
  23 C23           -4.4087     7.2661    -2.8853 C.ar    
  24 C24           -5.5586     7.9362    -2.5116 C.ar    
  25 C25           -5.4709     9.0960    -1.7646 C.ar    
  26 O26           -1.4528    12.3817     0.4373 O.2     
  27 H27           -0.9584     1.9036     0.0169 H       
  28 H28           -0.9266    -0.5554     0.0079 H       
  29 H29            1.2163    -1.7629    -0.0182 H       
  30 H30            3.3399    -0.5216    -0.0306 H       
  31 H31            3.3329     1.9376    -0.0182 H       
  32 H32           -0.9929     6.2735     0.0531 H       
  33 H33            3.2982     6.3074     0.0034 H       
  34 H34            3.2664     8.7666     0.0166 H       
  35 H35            1.1237     9.9740     0.0444 H       
  36 H36           -2.1642     8.3149     0.4747 H       
  37 H37           -1.0194    10.2356     1.7971 H       
  38 H38           -0.9704     9.1412    -2.0585 H       
  39 H39           -4.1650    10.4878    -0.8013 H       
  40 H40           -2.2730     7.2286    -2.7982 H       
  41 H41           -4.4771     6.3630    -3.4736 H       
  42 H42           -6.5253     7.5567    -2.8080 H       
  43 H43           -6.3690     9.6220    -1.4764 H       
@<TRIPOS>BOND
   1    1    2 ar
   2    1    6 ar
   3    1   27 1
   4    2    3 ar
   5    2   28 1
   6    3    4 ar
   7    3   29 1
   8    4    5 ar
   9    4   30 1
  10    5    6 ar
  11    5   31 1
  12    6    7 1
  13    7    8 3
  14    8    9 1
  15    9   11 ar
  16    9   10 ar
  17   10   14 ar
  18   10   32 1
  19   11   12 ar
  20   11   33 1
  21   12   13 ar
  22   12   34 1
  23   13   14 ar
  24   13   35 1
  25   14   15 1
  26   15   18 1
  27   15   17 1
  28   15   36 1
  29   16   17 am
  30   16   19 1
  31   16   26 2
  32   17   37 1
  33   18   19 1
  34   18   20 1
  35   18   38 1
  36   20   22 ar
  37   20   21 ar
  38   21   25 ar
  39   21   39 1
  40   22   23 ar
  41   22   40 1
  42   23   24 ar
  43   23   41 1
  44   24   25 ar
  45   24   42 1
  46   25   43 1

#	End of record

