#	Name: ASD01911148
#	Creating user name:	WinNT
#	Creation time:	15. 06. 2019 19:57

#	Modifying user name:	WinNT
#	Modification time:	15. 06. 2019 19:57

#	Program:	/corina/corina34_cracker 3.40 0067  02.08.2006

@<TRIPOS>MOLECULE
ASD01911148
  39   42    0    0    0
SMALL
NO_CHARGES


@<TRIPOS>ATOM
   1 C1            -0.0167     1.3769     0.0096 C.ar    
   2 C2             0.0021    -0.0041     0.0020 C.ar    
   3 C3             1.2148    -0.6805    -0.0132 C.ar    
   4 C4             2.4052     0.0345    -0.0208 C.ar    
   5 C5             2.3798     1.4153    -0.0132 C.ar    
   6 C6             1.1705     2.0860     0.0021 C.ar    
   7 N7             1.2372    -2.0811    -0.0205 N.pl3   
   8 N8             0.3284    -2.9225     0.6337 N.2     
   9 C9             0.6733    -4.1705     0.3942 C.2     
  10 C10            1.8184    -4.1610    -0.4243 C.2     
  11 C11            2.1431    -2.8641    -0.6699 C.2     
  12 C12           -0.0244    -5.3784     0.9001 C.ar    
  13 C13           -1.1535    -5.2475     1.7062 C.ar    
  14 C14           -1.7985    -6.3744     2.1741 C.ar    
  15 C15           -1.3259    -7.6319     1.8446 C.ar    
  16 C16           -0.2053    -7.7677     1.0451 C.ar    
  17 C17            0.4436    -6.6476     0.5662 C.ar    
  18 N18            3.2141    -2.4164    -1.4400 N.am    
  19 C19            4.0432    -3.3050    -2.0226 C.2     
  20 C20            5.1768    -2.8312    -2.8377 C.2     
  21 O21            3.8563    -4.4977    -1.8760 O.2     
  22 O22            5.5126    -1.5521    -3.0911 O.3     
  23 N23            6.4942    -1.4833    -3.7934 N.2     
  24 C24            6.9517    -2.6602    -4.1080 C.2     
  25 C25            6.1039    -3.6025    -3.4848 C.2     
  26 H26           -0.9595     1.9036     0.0169 H       
  27 H27           -0.9254    -0.5573     0.0083 H       
  28 H28            3.3499    -0.4887    -0.0323 H       
  29 H29            3.3053     1.9720    -0.0187 H       
  30 H30            1.1533     3.1658     0.0080 H       
  31 H31            2.3432    -5.0293    -0.7945 H       
  32 H32           -1.5229    -4.2661     1.9647 H       
  33 H33           -2.6737    -6.2741     2.7990 H       
  34 H34           -1.8335    -8.5111     2.2132 H       
  35 H35            0.1596    -8.7519     0.7912 H       
  36 H36            1.3183    -6.7547    -0.0582 H       
  37 H37            3.3632    -1.4651    -1.5570 H       
  38 H38            7.8140    -2.8746    -4.7220 H       
  39 H39            6.1684    -4.6801    -3.5168 H       
@<TRIPOS>BOND
   1    1    2 ar
   2    1    6 ar
   3    1   26 1
   4    2    3 ar
   5    2   27 1
   6    3    4 ar
   7    3    7 1
   8    4    5 ar
   9    4   28 1
  10    5    6 ar
  11    5   29 1
  12    6   30 1
  13    7    8 1
  14    7   11 1
  15    8    9 2
  16    9   10 1
  17    9   12 1
  18   10   11 2
  19   10   31 1
  20   11   18 1
  21   12   13 ar
  22   12   17 ar
  23   13   14 ar
  24   13   32 1
  25   14   15 ar
  26   14   33 1
  27   15   16 ar
  28   15   34 1
  29   16   17 ar
  30   16   35 1
  31   17   36 1
  32   18   19 am
  33   18   37 1
  34   19   20 1
  35   19   21 2
  36   20   22 1
  37   20   25 2
  38   22   23 1
  39   23   24 2
  40   24   25 1
  41   24   38 1
  42   25   39 1

#	End of record

