#	Name: ASD01814495
#	Creating user name:	WinNT
#	Creation time:	15. 06. 2019 19:32

#	Modifying user name:	WinNT
#	Modification time:	15. 06. 2019 19:32

#	Program:	/corina/corina34_cracker 3.40 0067  02.08.2006

@<TRIPOS>MOLECULE
ASD01814495
  55   60    0    0    0
SMALL
NO_CHARGES


@<TRIPOS>ATOM
   1 C1            -0.0167     1.3811     0.0096 C.ar    
   2 C2             0.0021    -0.0041     0.0020 C.ar    
   3 N3             1.1324    -0.6805    -0.0120 N.ar    
   4 C4             2.3086    -0.0705    -0.0199 C.ar    
   5 C5             2.3609     1.3370    -0.0133 C.ar    
   6 C6             1.1828     2.0751     0.0019 C.ar    
   7 N7             3.4842    -0.7898    -0.0340 N.pl3   
   8 N8             4.6484    -0.2529    -0.0414 N.2     
   9 C9             4.8548     1.0375    -0.0367 C.2     
  10 C10            3.6945     1.9630    -0.0221 C.2     
  11 C11            3.3985    -2.2523    -0.0406 C.3     
  12 C12            3.3563    -2.7467    -1.4636 C.ar    
  13 C13            4.5344    -3.0428    -2.1253 C.ar    
  14 C14            4.5016    -3.4959    -3.4286 C.ar    
  15 C15            3.2789    -3.6549    -4.0777 C.ar    
  16 C16            2.0953    -3.3550    -3.4063 C.ar    
  17 C17            2.1395    -2.9080    -2.1012 C.ar    
  18 C18            3.2374    -4.1411    -5.4789 C.ar    
  19 C19            6.0310     1.9111    -0.0430 C.2     
  20 N20            5.5596     3.1765    -0.0328 N.am    
  21 N21            4.1626     3.1749    -0.0205 N.2     
  22 O22            7.2004     1.5650    -0.0550 O.2     
  23 C23            6.3947     4.3802    -0.0345 C.3     
  24 C24            6.0824     5.2182    -1.2782 C.3     
  25 C25            6.9038     6.5102    -1.2293 C.3     
  26 C26            6.5884     7.2575     0.0690 C.3     
  27 O27            6.8720     6.4113     1.1851 O.3     
  28 C28            6.0989     5.2098     1.2177 C.3     
  29 C29            2.0213    -4.3062    -6.1447 C.ar    
  30 C30            2.0283    -4.7616    -7.4510 C.ar    
  31 N31            3.1645    -5.0378    -8.0651 N.ar    
  32 C32            4.3336    -4.8946    -7.4695 C.ar    
  33 C33            4.4157    -4.4408    -6.1701 C.ar    
  34 F34            0.8585    -4.9261    -8.1065 F       
  35 H35           -0.9559     1.9142     0.0170 H       
  36 H36           -0.9338    -0.5431     0.0080 H       
  37 H37            1.2018     3.1549     0.0075 H       
  38 H38            4.2703    -2.6696     0.4634 H       
  39 H39            2.4934    -2.5656     0.4798 H       
  40 H40            5.4815    -2.9189    -1.6213 H       
  41 H41            5.4220    -3.7265    -3.9444 H       
  42 H42            1.1449    -3.4760    -3.9048 H       
  43 H43            1.2227    -2.6756    -1.5797 H       
  44 H44            7.4464     4.0940    -0.0429 H       
  45 H45            6.3435     4.6537    -2.1732 H       
  46 H46            5.0201     5.4620    -1.2962 H       
  47 H47            7.9661     6.2678    -1.2613 H       
  48 H48            6.6466     7.1378    -2.0826 H       
  49 H49            7.2019     8.1564     0.1293 H       
  50 H50            5.5344     7.5350     0.0819 H       
  51 H51            5.0385     5.4606     1.2455 H       
  52 H52            6.3598     4.6337     2.1054 H       
  53 H53            1.0892    -4.0822    -5.6473 H       
  54 H54            5.2386    -5.1325    -8.0086 H       
  55 H55            5.3763    -4.3260    -5.6900 H       
@<TRIPOS>BOND
   1    1    2 ar
   2    1    6 ar
   3    1   35 1
   4    2    3 ar
   5    2   36 1
   6    3    4 ar
   7    4    5 ar
   8    4    7 1
   9    5    6 ar
  10    5   10 1
  11    6   37 1
  12    7    8 1
  13    7   11 1
  14    8    9 2
  15    9   10 1
  16    9   19 1
  17   10   21 2
  18   11   12 1
  19   11   38 1
  20   11   39 1
  21   12   13 ar
  22   12   17 ar
  23   13   14 ar
  24   13   40 1
  25   14   15 ar
  26   14   41 1
  27   15   16 ar
  28   15   18 1
  29   16   17 ar
  30   16   42 1
  31   17   43 1
  32   18   29 ar
  33   18   33 ar
  34   19   20 am
  35   19   22 2
  36   20   21 1
  37   20   23 1
  38   23   24 1
  39   23   28 1
  40   23   44 1
  41   24   25 1
  42   24   45 1
  43   24   46 1
  44   25   26 1
  45   25   47 1
  46   25   48 1
  47   26   27 1
  48   26   49 1
  49   26   50 1
  50   27   28 1
  51   28   51 1
  52   28   52 1
  53   29   30 ar
  54   29   53 1
  55   30   31 ar
  56   30   34 1
  57   31   32 ar
  58   32   33 ar
  59   32   54 1
  60   33   55 1

#	End of record

