#	Name: ASD01884852
#	Creating user name:	WinNT
#	Creation time:	15. 06. 2019 19:49

#	Modifying user name:	WinNT
#	Modification time:	15. 06. 2019 19:49

#	Program:	/corina/corina34_cracker 3.40 0067  02.08.2006

@<TRIPOS>MOLECULE
ASD01884852
  57   61    0    0    0
SMALL
NO_CHARGES


@<TRIPOS>ATOM
   1 C1            -1.5826     1.4034     1.1043 C.2     
   2 C2            -1.5994    -0.0023     1.1207 C.2     
   3 C3            -1.1844    -0.6871     0.0102 C.2     
   4 C4            -0.7489     0.0275    -1.1265 C.2     
   5 C5            -0.7411     1.3750    -1.1203 C.2     
   6 N6            -1.1583     2.0674    -0.0209 N.pl3   
   7 C7            -1.2577     3.3958     0.2716 C.2     
   8 N8            -1.7122     3.4963     1.4929 N.2     
   9 N9            -1.9125     2.3280     1.9933 N.2     
  10 N10           -1.1914    -2.0799     0.0024 N.pl3   
  11 C11           -0.9066     4.5389    -0.6456 C.3     
  12 Cl12          -2.1388    -0.8587     2.5311 Cl      
  13 C13           -2.4515    -2.8292     0.1210 C.3     
  14 C14           -2.5174    -3.8540    -1.0163 C.3     
  15 N15           -1.3011    -4.6776    -1.0001 N.3     
  16 C16           -0.1037    -3.8648    -1.2524 C.3     
  17 C17            0.0605    -2.8404    -0.1308 C.3     
  18 C18           -1.4003    -5.7820    -1.9637 C.3     
  19 C19           -2.1391     4.9358    -1.4606 C.3     
  20 C20           -2.0201     6.1599    -2.3708 C.3     
  21 C21           -2.0700     4.7567    -2.9785 C.3     
  22 C22           -0.0724    -6.5407    -2.0084 C.3     
  23 C23           -0.1757    -7.6909    -3.0119 C.3     
  24 C24           -1.2933    -8.6436    -2.5825 C.3     
  25 C25           -2.6211    -7.8849    -2.5378 C.3     
  26 C26           -2.5178    -6.7347    -1.5343 C.3     
  27 C27           -1.3966    -9.7939    -3.5861 C.3     
  28 F28           -0.1824   -10.4876    -3.6269 F       
  29 F29           -2.4184   -10.6650    -3.1934 F       
  30 F30           -1.6834    -9.2808    -4.8556 F       
  31 H31           -0.4202    -0.5080    -2.0049 H       
  32 H32           -0.4059     1.9120    -1.9953 H       
  33 H33           -0.5731     5.3909    -0.0531 H       
  34 H34           -0.1083     4.2311    -1.3207 H       
  35 H35           -2.4818    -3.3449     1.0808 H       
  36 H36           -3.2944    -2.1424     0.0444 H       
  37 H37           -3.3906    -4.4921    -0.8808 H       
  38 H38           -2.5915    -3.3334    -1.9711 H       
  39 H39            0.7735    -4.5108    -1.2881 H       
  40 H40           -0.2114    -3.3441    -2.2039 H       
  41 H41            0.8775    -2.1611    -0.3739 H       
  42 H42            0.2762    -3.3573     0.8043 H       
  43 H43           -1.6238    -5.3822    -2.9528 H       
  44 H44           -3.0996     4.7605    -0.9760 H       
  45 H45           -2.9023     6.7897    -2.4853 H       
  46 H46           -1.0637     6.6825    -2.3889 H       
  47 H47           -1.1465     4.3561    -3.3965 H       
  48 H48           -2.9852     4.4633    -3.4929 H       
  49 H49            0.7237    -5.8620    -2.3143 H       
  50 H50            0.1510    -6.9405    -1.0193 H       
  51 H51           -0.3992    -7.2912    -4.0011 H       
  52 H52            0.7703    -8.2314    -3.0437 H       
  53 H53           -1.0698    -9.0434    -1.5934 H       
  54 H54           -2.8446    -7.4852    -3.5270 H       
  55 H55           -3.4173    -8.5636    -2.2319 H       
  56 H56           -2.2944    -7.1345    -0.5452 H       
  57 H57           -3.4638    -6.1942    -1.5025 H       
@<TRIPOS>BOND
   1    1    2 1
   2    1    9 2
   3    1    6 1
   4    2    3 2
   5    2   12 1
   6    3    4 1
   7    3   10 1
   8    4    5 2
   9    4   31 1
  10    5    6 1
  11    5   32 1
  12    6    7 1
  13    7    8 2
  14    7   11 1
  15    8    9 1
  16   10   13 1
  17   10   17 1
  18   11   19 1
  19   11   33 1
  20   11   34 1
  21   13   14 1
  22   13   35 1
  23   13   36 1
  24   14   15 1
  25   14   37 1
  26   14   38 1
  27   15   16 1
  28   15   18 1
  29   16   17 1
  30   16   39 1
  31   16   40 1
  32   17   41 1
  33   17   42 1
  34   18   22 1
  35   18   26 1
  36   18   43 1
  37   19   20 1
  38   19   21 1
  39   19   44 1
  40   20   21 1
  41   20   45 1
  42   20   46 1
  43   21   47 1
  44   21   48 1
  45   22   23 1
  46   22   49 1
  47   22   50 1
  48   23   24 1
  49   23   51 1
  50   23   52 1
  51   24   25 1
  52   24   27 1
  53   24   53 1
  54   25   26 1
  55   25   54 1
  56   25   55 1
  57   26   56 1
  58   26   57 1
  59   27   28 1
  60   27   29 1
  61   27   30 1

#	End of record

