#	Name: ASD09740333
#	Creating user name:	WinNT
#	Creation time:	15. 06. 2019 21:23

#	Modifying user name:	WinNT
#	Modification time:	15. 06. 2019 21:23

#	Program:	/corina/corina34_cracker 3.40 0067  02.08.2006

@<TRIPOS>MOLECULE
ASD09740333
  60   64    0    0    0
SMALL
NO_CHARGES


@<TRIPOS>ATOM
   1 N1             0.0024     1.2061    -0.1881 N.2     
   2 O2             0.0190    -0.0051    -0.2453 O.3     
   3 C3             1.2185     1.6827    -0.2825 C.2     
   4 N4             2.0545     0.6305    -0.4106 N.2     
   5 C5             1.2813    -0.4395    -0.3858 C.2     
   6 C6             1.7212    -1.8453    -0.4923 C.ar    
   7 C7             1.6055     3.1130    -0.2543 C.ar    
   8 C8             2.9458     3.4763    -0.2541 C.ar    
   9 C9             3.3060     4.8136    -0.2272 C.ar    
  10 C10            2.3465     5.8033    -0.2008 C.ar    
  11 C11            0.9962     5.4687    -0.2008 C.ar    
  12 C12            0.6185     4.1150    -0.2334 C.ar    
  13 C13            3.0772    -2.1451    -0.6356 C.ar    
  14 C14            3.4863    -3.4582    -0.7354 C.ar    
  15 C15            2.5530    -4.4838    -0.6938 C.ar    
  16 C16            1.1977    -4.1915    -0.5504 C.ar    
  17 C17            0.7818    -2.8783    -0.4441 C.ar    
  18 N18           -0.1627     6.2129    -0.1787 N.pl3   
  19 C19           -1.2484     5.3820    -0.1908 C.2     
  20 C20           -0.8434     4.1010    -0.2244 C.2     
  21 C21           -1.7283     2.8813    -0.2477 C.3     
  22 N22           -3.1369     3.2981    -0.2360 N.3     
  23 C23           -4.0200     2.1869    -0.6352 C.3     
  24 C24           -5.0317     1.9728     0.5103 C.3     
  25 C25           -5.0264     3.3410     1.2416 C.3     
  26 C26           -3.5413     3.7611     1.1086 C.3     
  27 O27            2.9610    -5.7760    -0.7935 O.3     
  28 C28            4.6293    -7.5077    -1.0347 C.3     
  29 C29            4.3641    -6.0039    -0.9389 C.3     
  30 O30            0.2852    -5.1991    -0.5104 O.3     
  31 C31           -1.9567    -6.0849    -0.3375 C.3     
  32 C32           -1.0864    -4.8268    -0.3618 C.3     
  33 H33            3.7101     2.7136    -0.2745 H       
  34 H34            4.3515     5.0843    -0.2266 H       
  35 H35            2.6440     6.8413    -0.1797 H       
  36 H36            3.8058    -1.3485    -0.6687 H       
  37 H37            4.5356    -3.6886    -0.8466 H       
  38 H38           -0.2679    -2.6503    -0.3326 H       
  39 H39           -0.2026     7.1819    -0.1576 H       
  40 H40           -2.2784     5.7068    -0.1783 H       
  41 H41           -1.5277     2.3041    -1.1502 H       
  42 H42           -1.5238     2.2673     0.6294 H       
  43 H43           -4.5483     2.4445    -1.5531 H       
  44 H44           -3.4321     1.2813    -0.7847 H       
  45 H45           -6.0224     1.7519     0.1132 H       
  46 H46           -4.6966     1.1782     1.1770 H       
  47 H47           -5.6803     4.0543     0.7400 H       
  48 H48           -5.3072     3.2253     2.2884 H       
  49 H49           -2.9389     3.2734     1.8750 H       
  50 H50           -3.4454     4.8444     1.1816 H       
  51 H51            4.2736    -7.9979    -0.1284 H       
  52 H52            4.1036    -7.9150    -1.8983 H       
  53 H53            5.6996    -7.6816    -1.1456 H       
  54 H54            4.7199    -5.5138    -1.8451 H       
  55 H55            4.8898    -5.5966    -0.0752 H       
  56 H56           -1.6590    -6.7166     0.4994 H       
  57 H57           -3.0029    -5.8008    -0.2241 H       
  58 H58           -1.8283    -6.6335    -1.2706 H       
  59 H59           -1.2149    -4.2781     0.5713 H       
  60 H60           -1.3842    -4.1950    -1.1986 H       
@<TRIPOS>BOND
   1    1    2 1
   2    1    3 2
   3    2    5 1
   4    3    4 1
   5    3    7 1
   6    4    5 2
   7    5    6 1
   8    6   13 ar
   9    6   17 ar
  10    7    8 ar
  11    7   12 ar
  12    8    9 ar
  13    8   33 1
  14    9   10 ar
  15    9   34 1
  16   10   11 ar
  17   10   35 1
  18   11   12 ar
  19   11   18 1
  20   12   20 1
  21   13   14 ar
  22   13   36 1
  23   14   15 ar
  24   14   37 1
  25   15   16 ar
  26   15   27 1
  27   16   17 ar
  28   16   30 1
  29   17   38 1
  30   18   19 1
  31   18   39 1
  32   19   20 2
  33   19   40 1
  34   20   21 1
  35   21   22 1
  36   21   41 1
  37   21   42 1
  38   22   23 1
  39   22   26 1
  40   23   24 1
  41   23   43 1
  42   23   44 1
  43   24   25 1
  44   24   45 1
  45   24   46 1
  46   25   26 1
  47   25   47 1
  48   25   48 1
  49   26   49 1
  50   26   50 1
  51   27   29 1
  52   28   29 1
  53   28   51 1
  54   28   52 1
  55   28   53 1
  56   29   54 1
  57   29   55 1
  58   30   32 1
  59   31   32 1
  60   31   56 1
  61   31   57 1
  62   31   58 1
  63   32   59 1
  64   32   60 1

#	End of record

