#	Name: ASD05300013
#	Creating user name:	WinNT
#	Creation time:	15. 06. 2019 20:58

#	Modifying user name:	WinNT
#	Modification time:	15. 06. 2019 20:58

#	Program:	/corina/corina34_cracker 3.40 0067  02.08.2006

@<TRIPOS>MOLECULE
ASD05300013
  47   49    0    0    0
SMALL
NO_CHARGES


@<TRIPOS>ATOM
   1 C1             2.0308    -2.8988    -2.7331 C.3     
   2 N2             2.8630    -1.7872    -2.2539 N.3     
   3 C3             3.5427    -2.1408    -1.0005 C.3     
   4 C4             2.5048    -2.3230     0.1087 C.3     
   5 N5             3.1827    -2.6757     1.3587 N.am    
   6 C6             3.5847    -1.7060     2.2040 C.2     
   7 O7             3.2982    -0.5490     1.9800 O.2     
   8 N8             4.3052    -2.0221     3.2983 N.am    
   9 C9             4.7595    -3.2833     3.4696 C.2     
  10 C10            5.6554    -3.8211     2.5436 C.2     
  11 C11            6.1657    -5.1049     2.7263 C.2     
  12 C12            5.7877    -5.8498     3.8430 C.2     
  13 C13            4.8869    -5.3170     4.7625 C.2     
  14 C14            4.3549    -4.0390     4.5679 C.2     
  15 C15            3.3410    -3.5344     5.4976 C.2     
  16 C16            3.2278    -2.3135     5.9098 C.2     
  17 C17            4.1019    -1.1985     5.5290 C.2     
  18 C18            4.5802    -1.0779     4.2241 C.2     
  19 C19            5.3517     0.0309     3.8652 C.2     
  20 C20            5.6819     0.9924     4.8182 C.2     
  21 C21            5.2418     0.8478     6.1335 C.2     
  22 C22            4.4553    -0.2460     6.4887 C.2     
  23 C23            3.4236    -4.0823     1.6897 C.3     
  24 C24            3.8305    -1.3739    -3.2790 C.3     
  25 H25            1.2775    -3.1387    -1.9827 H       
  26 H26            1.5391    -2.6103    -3.6622 H       
  27 H27            2.6582    -3.7724    -2.9102 H       
  28 H28            4.0958    -3.0701    -1.1368 H       
  29 H29            4.2334    -1.3440    -0.7245 H       
  30 H30            1.9517    -1.3937     0.2450 H       
  31 H31            1.8141    -3.1198    -0.1673 H       
  32 H32            5.9535    -3.2405     1.6831 H       
  33 H33            6.8522    -5.5223     2.0045 H       
  34 H34            6.1928    -6.8394     3.9948 H       
  35 H35            4.5983    -5.8936     5.6288 H       
  36 H36            2.6218    -4.2473     5.8730 H       
  37 H37            2.4200    -2.0962     6.5930 H       
  38 H38            5.6932     0.1426     2.8467 H       
  39 H39            6.2782     1.8483     4.5386 H       
  40 H40            5.5111     1.5827     6.8777 H       
  41 H41            4.1153    -0.3566     7.5078 H       
  42 H42            4.4078    -4.3777     1.3263 H       
  43 H43            3.3810    -4.2135     2.7710 H       
  44 H44            2.6610    -4.7022     1.2182 H       
  45 H45            3.3007    -1.1177    -4.1965 H       
  46 H46            4.3857    -0.5051    -2.9254 H       
  47 H47            4.5232    -2.1922    -3.4759 H       
@<TRIPOS>BOND
   1    1    2 1
   2    1   25 1
   3    1   26 1
   4    1   27 1
   5    2    3 1
   6    2   24 1
   7    3    4 1
   8    3   28 1
   9    3   29 1
  10    4    5 1
  11    4   30 1
  12    4   31 1
  13    5    6 am
  14    5   23 1
  15    6    7 2
  16    6    8 am
  17    8    9 1
  18    8   18 1
  19    9   10 2
  20    9   14 1
  21   10   11 1
  22   10   32 1
  23   11   12 2
  24   11   33 1
  25   12   13 1
  26   12   34 1
  27   13   14 2
  28   13   35 1
  29   14   15 1
  30   15   16 2
  31   15   36 1
  32   16   17 1
  33   16   37 1
  34   17   18 2
  35   17   22 1
  36   18   19 1
  37   19   20 2
  38   19   38 1
  39   20   21 1
  40   20   39 1
  41   21   22 2
  42   21   40 1
  43   22   41 1
  44   23   42 1
  45   23   43 1
  46   23   44 1
  47   24   45 1
  48   24   46 1
  49   24   47 1

#	End of record

