#	Name: ASD04591021
#	Creating user name:	WinNT
#	Creation time:	15. 06. 2019 20:51

#	Modifying user name:	WinNT
#	Modification time:	15. 06. 2019 20:51

#	Program:	/corina/corina34_cracker 3.40 0067  02.08.2006

@<TRIPOS>MOLECULE
ASD04591021
  62   68    0    0    0
SMALL
NO_CHARGES


@<TRIPOS>ATOM
   1 N1            -0.0221     1.2154     0.5939 N.ar    
   2 C2            -0.0023    -0.0464     0.1831 C.ar    
   3 N3             1.1266    -0.6998    -0.0403 N.ar    
   4 C4             2.3012    -0.1038     0.1422 C.ar    
   5 C5             2.3139     1.2365     0.5782 C.ar    
   6 C6             1.1016     1.8822     0.8000 C.ar    
   7 N7             3.5997    -0.5238    -0.0070 N.pl3   
   8 C8             4.4780     0.4961     0.3164 C.ar    
   9 C9             3.7258     1.6240     0.6906 C.ar    
  10 C10            5.8636     0.5892     0.3328 C.ar    
  11 N11            6.4558     1.7099     0.6918 N.ar    
  12 C12            5.7786     2.7869     1.0488 C.ar    
  13 C13            4.3999     2.7868     1.0617 C.ar    
  14 N14           -1.2047    -0.7022    -0.0181 N.pl3   
  15 C15           -2.4124    -0.0019     0.0973 C.ar    
  16 C16           -2.4853     1.3266    -0.3004 C.ar    
  17 C17           -3.6757     2.0169    -0.1866 C.ar    
  18 C18           -4.8000     1.3827     0.3254 C.ar    
  19 C19           -4.7270     0.0540     0.7231 C.ar    
  20 C20           -3.5380    -0.6378     0.6040 C.ar    
  21 N21           -6.0064     2.0824     0.4412 N.3     
  22 C22           -7.0601     1.2261     1.0033 C.3     
  23 C23           -8.3378     2.0483     1.1875 C.3     
  24 N24           -8.7507     2.6042    -0.1087 N.3     
  25 C25           -7.6970     3.4605    -0.6709 C.3     
  26 C26           -6.4193     2.6383    -0.8551 C.3     
  27 C27            2.8746    -2.5143    -1.2823 C.3     
  28 C28            3.5159    -2.7594    -2.6824 C.3     
  29 C29            3.6837    -1.3332    -3.2899 C.3     
  30 C30            4.8087    -0.6819    -2.4533 C.3     
  31 C31            3.9996    -1.8631    -0.4458 C.3     
  32 C32            5.2146    -1.7760    -1.4191 C.3     
  33 C33            4.9972    -3.0758    -2.2715 C.3     
  34 H34            1.0784     2.9090     1.1339 H       
  35 H35            6.4608    -0.2648     0.0492 H       
  36 H36            6.3131     3.6807     1.3349 H       
  37 H37            3.8524     3.6705     1.3543 H       
  38 H38           -1.2109    -1.6467    -0.2391 H       
  39 H39           -1.6109     1.8200    -0.6982 H       
  40 H40           -3.7323     3.0503    -0.4956 H       
  41 H41           -5.6012    -0.4392     1.1216 H       
  42 H42           -3.4812    -1.6711     0.9133 H       
  43 H43           -7.2561     0.3969     0.3236 H       
  44 H44           -6.7360     0.8367     1.9684 H       
  45 H45           -9.1292     1.4081     1.5773 H       
  46 H46           -8.1491     2.8615     1.8884 H       
  47 H47           -9.0022     1.8699    -0.7534 H       
  48 H48           -8.0211     3.8499    -1.6360 H       
  49 H49           -7.5010     4.2897     0.0089 H       
  50 H50           -5.6279     3.2785    -1.2449 H       
  51 H51           -6.6080     1.8251    -1.5560 H       
  52 H52            2.0240    -1.8380    -1.3671 H       
  53 H53            2.5667    -3.4593    -0.8348 H       
  54 H54            3.0133    -3.4908    -3.3152 H       
  55 H55            3.9783    -1.3986    -4.3373 H       
  56 H56            2.7584    -0.7660    -3.1892 H       
  57 H57            5.6564    -0.4272    -3.0894 H       
  58 H58            4.4364     0.2054    -1.9414 H       
  59 H59            4.2433    -2.4869     0.4142 H       
  60 H60            6.1914    -1.6510    -0.9519 H       
  61 H61            5.0693    -3.9789    -1.6654 H       
  62 H62            5.6616    -3.1144    -3.1348 H       
@<TRIPOS>BOND
   1    1    2 ar
   2    1    6 ar
   3    2    3 ar
   4    2   14 1
   5    3    4 ar
   6    4    5 ar
   7    4    7 1
   8    5    6 ar
   9    5    9 1
  10    6   34 1
  11    7    8 1
  12    7   31 1
  13    8    9 ar
  14    8   10 ar
  15    9   13 ar
  16   10   11 ar
  17   10   35 1
  18   11   12 ar
  19   12   13 ar
  20   12   36 1
  21   13   37 1
  22   14   15 1
  23   14   38 1
  24   15   16 ar
  25   15   20 ar
  26   16   17 ar
  27   16   39 1
  28   17   18 ar
  29   17   40 1
  30   18   19 ar
  31   18   21 1
  32   19   20 ar
  33   19   41 1
  34   20   42 1
  35   21   22 1
  36   21   26 1
  37   22   23 1
  38   22   43 1
  39   22   44 1
  40   23   24 1
  41   23   45 1
  42   23   46 1
  43   24   25 1
  44   24   47 1
  45   25   26 1
  46   25   48 1
  47   25   49 1
  48   26   50 1
  49   26   51 1
  50   27   28 1
  51   27   31 1
  52   27   52 1
  53   27   53 1
  54   28   29 1
  55   28   33 1
  56   28   54 1
  57   29   30 1
  58   29   55 1
  59   29   56 1
  60   30   32 1
  61   30   57 1
  62   30   58 1
  63   31   32 1
  64   31   59 1
  65   32   33 1
  66   32   60 1
  67   33   61 1
  68   33   62 1

#	End of record

