#	Name: ASD01190079
#	Creating user name:	WinNT
#	Creation time:	15. 06. 2019 19:07

#	Modifying user name:	WinNT
#	Modification time:	15. 06. 2019 19:07

#	Program:	/corina/corina34_cracker 3.40 0067  02.08.2006

@<TRIPOS>MOLECULE
ASD01190079
  51   55    0    0    0
SMALL
NO_CHARGES


@<TRIPOS>ATOM
   1 C1             0.2560     1.4965     0.7991 C.2     
   2 O2             0.1712     0.2858     0.7411 O.2     
   3 N3             1.4503     2.0974     0.6286 N.am    
   4 N4             1.6624     3.4782     0.5586 N.2     
   5 C5             2.9281     3.7291     0.3904 C.2     
   6 C6             3.6365     2.4513     0.3405 C.ar    
   7 C7             4.9781     2.0915     0.1817 C.ar    
   8 C8             5.3306     0.7723     0.1782 C.ar    
   9 C9             4.3680    -0.2171     0.3306 C.ar    
  10 C10            3.0404     0.1139     0.4880 C.ar    
  11 C11            2.6596     1.4514     0.5011 C.ar    
  12 C12            6.7772     0.3865     0.0068 C.3     
  13 C13            7.2494     0.7863    -1.3925 C.3     
  14 N14            9.1106     2.4322     1.9886 N.pl3   
  15 C15            8.5701     2.0074     0.8055 C.2     
  16 C16            7.6124     1.0967     1.0408 C.2     
  17 C17            7.5331     0.9242     2.4933 C.ar    
  18 C18            6.7482     0.1340     3.3355 C.ar    
  19 C19            6.9222     0.2048     4.6887 C.ar    
  20 C20            7.8734     1.0566     5.2338 C.ar    
  21 C21            8.6580     1.8452     4.4216 C.ar    
  22 C22            8.4983     1.7889     3.0407 C.ar    
  23 C23           10.1851     3.4198     2.1165 C.3     
  24 O24            6.9161    -1.0263     0.1708 O.3     
  25 F25            7.1135     2.1694    -1.5531 F       
  26 F26            8.5924     0.4281    -1.5515 F       
  27 F27            6.4741     0.1270    -2.3524 F       
  28 C28           -0.9509     2.3101     1.0505 C.ar    
  29 C29           -2.2115     1.7094     1.0637 C.ar    
  30 C30           -3.3343     2.4751     1.2996 C.ar    
  31 C31           -3.2137     3.8355     1.5223 C.ar    
  32 C32           -1.9677     4.4372     1.5105 C.ar    
  33 C33           -0.8359     3.6825     1.2817 C.ar    
  34 H34            3.3759     4.7079     0.3026 H       
  35 H35            5.7331     2.8544     0.0618 H       
  36 H36            4.6632    -1.2559     0.3252 H       
  37 H37            2.2984    -0.6621     0.6052 H       
  38 H38            8.8695     2.3537    -0.1727 H       
  39 H39            6.0060    -0.5307     2.9186 H       
  40 H40            6.3146    -0.4064     5.3397 H       
  41 H41            7.9992     1.1015     6.3055 H       
  42 H42            9.3951     2.5049     4.8552 H       
  43 H43            9.7538     4.4176     2.1971 H       
  44 H44           10.7721     3.2045     3.0093 H       
  45 H45           10.8288     3.3721     1.2382 H       
  46 H46            6.6348    -1.3512     1.0371 H       
  47 H47           -2.3071     0.6479     0.8894 H       
  48 H48           -4.3098     2.0119     1.3102 H       
  49 H49           -4.0962     4.4304     1.7058 H       
  50 H50           -1.8807     5.4995     1.6847 H       
  51 H51            0.1364     4.1526     1.2772 H       
@<TRIPOS>BOND
   1    1    2 2
   2    1    3 am
   3    1   28 1
   4    3    4 1
   5    3   11 1
   6    4    5 2
   7    5    6 1
   8    5   34 1
   9    6    7 ar
  10    6   11 ar
  11    7    8 ar
  12    7   35 1
  13    8    9 ar
  14    8   12 1
  15    9   10 ar
  16    9   36 1
  17   10   11 ar
  18   10   37 1
  19   12   13 1
  20   12   16 1
  21   12   24 1
  22   13   25 1
  23   13   26 1
  24   13   27 1
  25   14   15 1
  26   14   22 1
  27   14   23 1
  28   15   16 2
  29   15   38 1
  30   16   17 1
  31   17   18 ar
  32   17   22 ar
  33   18   19 ar
  34   18   39 1
  35   19   20 ar
  36   19   40 1
  37   20   21 ar
  38   20   41 1
  39   21   22 ar
  40   21   42 1
  41   23   43 1
  42   23   44 1
  43   23   45 1
  44   24   46 1
  45   28   29 ar
  46   28   33 ar
  47   29   30 ar
  48   29   47 1
  49   30   31 ar
  50   30   48 1
  51   31   32 ar
  52   31   49 1
  53   32   33 ar
  54   32   50 1
  55   33   51 1

#	End of record

