#	Name: ASD03092332
#	Creating user name:	WinNT
#	Creation time:	15. 06. 2019 20:32

#	Modifying user name:	WinNT
#	Modification time:	15. 06. 2019 20:32

#	Program:	/corina/corina34_cracker 3.40 0067  02.08.2006

@<TRIPOS>MOLECULE
ASD03092332
  62   65    0    0    0
SMALL
NO_CHARGES


@<TRIPOS>ATOM
   1 C1            -0.1274     1.4493     0.0219 C.2     
   2 C2            -0.1638    -0.0275     0.0320 C.ar    
   3 C3             1.0111    -0.7586    -0.1569 C.ar    
   4 C4             0.9711    -2.1382    -0.1460 C.ar    
   5 C5            -0.2349    -2.7978     0.0518 C.ar    
   6 C6            -1.4025    -2.0755     0.2391 C.ar    
   7 C7            -1.3719    -0.6969     0.2361 C.ar    
   8 O8             0.9380     2.0306    -0.0487 O.2     
   9 N9            -1.2756     2.1522     0.0855 N.am    
  10 C10            2.3196    -0.0428    -0.3725 C.3     
  11 F11           -0.2700    -4.1483     0.0614 F       
  12 F12            2.1062    -2.8476    -0.3284 F       
  13 C13           -1.2395     3.6167     0.0755 C.3     
  14 S14           -4.9328     5.0784    -0.3946 S.3     
  15 C15           -4.4913     4.7908     1.2316 C.2     
  16 N16           -3.2825     4.3190     1.2938 N.2     
  17 C17           -2.6450     4.1544     0.1551 C.2     
  18 C18           -3.3563     4.5078    -0.9360 C.2     
  19 C19           -2.6021     5.4005    -4.5051 C.ar    
  20 C20           -3.0481     5.5170    -3.2064 C.ar    
  21 C21           -2.8951     4.4297    -2.3358 C.ar    
  22 C22           -2.2914     3.2662    -2.8314 C.ar    
  23 C23           -1.8753     3.2374    -4.1448 C.ar    
  24 N24           -2.0386     4.2852    -4.9311 N.ar    
  25 C25           -1.2246     1.9927    -4.6910 C.3     
  26 C26           -2.7660     6.5598    -5.4539 C.3     
  27 N27           -5.3047     5.0272     2.3249 N.3     
  28 C28           -6.6087     5.5613     1.9058 C.3     
  29 C29           -7.4529     5.8638     3.1467 C.3     
  30 O30           -7.5815     4.6748     3.9310 O.3     
  31 C31           -6.3306     4.1278     4.3568 C.3     
  32 C32           -5.4751     3.8077     3.1282 C.3     
  33 C33           -6.5786     2.8461     5.1547 C.3     
  34 C34           -8.8401     6.3444     2.7161 C.3     
  35 H35           -2.3378    -2.5933     0.3918 H       
  36 H36           -2.2822    -0.1356     0.3870 H       
  37 H37           -2.1259     1.6883     0.1379 H       
  38 H38            2.7409     0.2424     0.5915 H       
  39 H39            3.0140    -0.7036    -0.8914 H       
  40 H40            2.1503     0.8506    -0.9736 H       
  41 H41           -0.6656     3.9718     0.9315 H       
  42 H42           -0.7698     3.9623    -0.8454 H       
  43 H43           -3.5079     6.4325    -2.8647 H       
  44 H44           -2.1540     2.4055    -2.1937 H       
  45 H45           -1.9886     1.3357    -5.1065 H       
  46 H46           -0.5162     2.2662    -5.4729 H       
  47 H47           -0.6983     1.4758    -3.8885 H       
  48 H48           -1.8863     7.2010    -5.3994 H       
  49 H49           -2.8792     6.1838    -6.4707 H       
  50 H50           -3.6511     7.1329    -5.1778 H       
  51 H51           -6.4601     6.4776     1.3345 H       
  52 H52           -7.1218     4.8250     1.2872 H       
  53 H53           -6.9657     6.6390     3.7382 H       
  54 H54           -5.8109     4.8526     4.9834 H       
  55 H55           -5.9701     3.0434     2.5291 H       
  56 H56           -4.4990     3.4440     3.4491 H       
  57 H57           -7.0966     2.1215     4.5264 H       
  58 H58           -5.6248     2.4297     5.4789 H       
  59 H59           -7.1909     3.0740     6.0271 H       
  60 H60           -9.3269     5.5676     2.1264 H       
  61 H61           -9.4406     6.5596     3.6000 H       
  62 H62           -8.7411     7.2484     2.1152 H       
@<TRIPOS>BOND
   1    1    2 1
   2    1    8 2
   3    1    9 am
   4    2    3 ar
   5    2    7 ar
   6    3    4 ar
   7    3   10 1
   8    4    5 ar
   9    4   12 1
  10    5    6 ar
  11    5   11 1
  12    6    7 ar
  13    6   35 1
  14    7   36 1
  15    9   13 1
  16    9   37 1
  17   10   38 1
  18   10   39 1
  19   10   40 1
  20   13   17 1
  21   13   41 1
  22   13   42 1
  23   14   15 1
  24   14   18 1
  25   15   16 2
  26   15   27 1
  27   16   17 1
  28   17   18 2
  29   18   21 1
  30   19   20 ar
  31   19   24 ar
  32   19   26 1
  33   20   21 ar
  34   20   43 1
  35   21   22 ar
  36   22   23 ar
  37   22   44 1
  38   23   24 ar
  39   23   25 1
  40   25   45 1
  41   25   46 1
  42   25   47 1
  43   26   48 1
  44   26   49 1
  45   26   50 1
  46   27   28 1
  47   27   32 1
  48   28   29 1
  49   28   51 1
  50   28   52 1
  51   29   30 1
  52   29   34 1
  53   29   53 1
  54   30   31 1
  55   31   32 1
  56   31   33 1
  57   31   54 1
  58   32   55 1
  59   32   56 1
  60   33   57 1
  61   33   58 1
  62   33   59 1
  63   34   60 1
  64   34   61 1
  65   34   62 1

#	End of record

