#	Name: ASD03240258
#	Creating user name:	WinNT
#	Creation time:	15. 06. 2019 20:34

#	Modifying user name:	WinNT
#	Modification time:	15. 06. 2019 20:34

#	Program:	/corina/corina34_cracker 3.40 0067  02.08.2006

@<TRIPOS>MOLECULE
ASD03240258
  30   29    0    0    0
SMALL
NO_CHARGES


@<TRIPOS>ATOM
   1 O1             0.0021    -0.0041     0.0020 O.2     
   2 C2            -0.0144     1.2086     0.0087 C.2     
   3 N3             1.1435     1.8983     0.0013 N.am    
   4 C4             2.4220     1.1832    -0.0147 C.3     
   5 C5             3.4995     2.0784    -0.6299 C.3     
   6 C6             3.1651     2.3428    -2.0993 C.3     
   7 C7             4.2426     3.2381    -2.7144 C.3     
   8 C8             3.9082     3.5025    -4.1838 C.3     
   9 C9             4.9857     4.3977    -4.7990 C.3     
  10 C10            4.6513     4.6621    -6.2684 C.3     
  11 C11            2.8194     0.8168     1.4166 C.3     
  12 H12           -0.9569     1.7358     0.0160 H       
  13 H13            1.1304     2.8682     0.0067 H       
  14 H14            2.3225     0.2743    -0.6081 H       
  15 H15            3.5375     3.0246    -0.0900 H       
  16 H16            4.4673     1.5818    -0.5611 H       
  17 H17            3.1271     1.3967    -2.6392 H       
  18 H18            2.1973     2.8395    -2.1680 H       
  19 H19            4.2806     4.1842    -2.1745 H       
  20 H20            5.2104     2.7414    -2.6457 H       
  21 H21            3.8702     2.5563    -4.7237 H       
  22 H22            2.9404     3.9991    -4.2526 H       
  23 H23            5.0237     5.3439    -4.2591 H       
  24 H24            5.9535     3.9011    -4.7303 H       
  25 H25            4.6133     3.7160    -6.8083 H       
  26 H26            3.6835     5.1588    -6.3371 H       
  27 H27            5.4189     5.2999    -6.7066 H       
  28 H28            2.0518     0.1789     1.8549 H       
  29 H29            3.7707     0.2847     1.4047 H       
  30 H30            2.9189     1.7256     2.0100 H       
@<TRIPOS>BOND
   1    1    2 2
   2    2    3 am
   3    2   12 1
   4    3    4 1
   5    3   13 1
   6    4    5 1
   7    4   11 1
   8    4   14 1
   9    5    6 1
  10    5   15 1
  11    5   16 1
  12    6    7 1
  13    6   17 1
  14    6   18 1
  15    7    8 1
  16    7   19 1
  17    7   20 1
  18    8    9 1
  19    8   21 1
  20    8   22 1
  21    9   10 1
  22    9   23 1
  23    9   24 1
  24   10   25 1
  25   10   26 1
  26   10   27 1
  27   11   28 1
  28   11   29 1
  29   11   30 1

#	End of record

