#	Name: ASD06390001
#	Creating user name:	WinNT
#	Creation time:	15. 06. 2019 21:06

#	Modifying user name:	WinNT
#	Modification time:	15. 06. 2019 21:06

#	Program:	/corina/corina34_cracker 3.40 0067  02.08.2006

@<TRIPOS>MOLECULE
ASD06390001
  40   41    0    0    0
SMALL
NO_CHARGES


@<TRIPOS>ATOM
   1 C1             2.5323     1.3600    -0.0122 C.2     
   2 C2             2.5499     0.0301    -0.0163 C.2     
   3 C3             1.2858    -0.7222    -0.0141 C.2     
   4 O4             0.2272    -0.1320     0.0861 O.2     
   5 N5             1.3008    -2.0654    -0.1232 N.am    
   6 C6             2.5616    -2.7825    -0.3603 C.3     
   7 C7             2.7408    -3.8356     0.7402 C.3     
   8 N8             1.4969    -4.6095     0.8567 N.am    
   9 C9             0.2362    -3.8924     1.0939 C.3     
  10 C10            0.0577    -2.8397    -0.0011 C.3     
  11 C11            1.5119    -5.9528     0.7477 C.2     
  12 O12            2.5584    -6.5336     0.5516 O.2     
  13 C13            0.2284    -6.7330     0.8694 C.3     
  14 N14            0.5094    -8.1626     0.7153 N.pl3   
  15 C15           -0.5340    -9.0934     0.7907 C.ar    
  16 C16           -1.8339    -8.6637     1.0110 C.ar    
  17 C17           -2.8633    -9.5846     1.0846 C.ar    
  18 I18           -4.8265    -8.9337     1.4176 I       
  19 C19           -2.5991   -10.9349     0.9384 C.ar    
  20 C20           -1.3037   -11.3699     0.7182 C.ar    
  21 C21           -0.2692   -10.4529     0.6386 C.ar    
  22 O22            1.0041   -10.8791     0.4219 O.3     
  23 Cl23          -3.8951   -12.0861     1.0317 Cl      
  24 H24            1.5900     1.8875    -0.0074 H       
  25 H25            3.4604     1.9123    -0.0093 H       
  26 H26            3.4923    -0.4974    -0.0211 H       
  27 H27            2.5263    -3.2726    -1.3333 H       
  28 H28            3.3935    -2.0789    -0.3323 H       
  29 H29            3.5629    -4.5018     0.4786 H       
  30 H30            2.9544    -3.3416     1.6880 H       
  31 H31           -0.5958    -4.5960     1.0658 H       
  32 H32            0.2714    -3.4024     2.0668 H       
  33 H33           -0.7647    -2.1743     0.2617 H       
  34 H34           -0.1554    -3.3316    -0.9502 H       
  35 H35           -0.2146    -6.5533     1.8489 H       
  36 H36           -0.4661    -6.4135     0.0924 H       
  37 H37            1.4183    -8.4643     0.5612 H       
  38 H38           -2.0425    -7.6102     1.1255 H       
  39 H39           -1.1002   -12.4245     0.6048 H       
  40 H40            1.2462   -10.9358    -0.5126 H       
@<TRIPOS>BOND
   1    1    2 2
   2    1   24 1
   3    1   25 1
   4    2    3 1
   5    2   26 1
   6    3    4 2
   7    3    5 am
   8    5    6 1
   9    5   10 1
  10    6    7 1
  11    6   27 1
  12    6   28 1
  13    7    8 1
  14    7   29 1
  15    7   30 1
  16    8    9 1
  17    8   11 am
  18    9   10 1
  19    9   31 1
  20    9   32 1
  21   10   33 1
  22   10   34 1
  23   11   12 2
  24   11   13 1
  25   13   14 1
  26   13   35 1
  27   13   36 1
  28   14   15 1
  29   14   37 1
  30   15   16 ar
  31   15   21 ar
  32   16   17 ar
  33   16   38 1
  34   17   18 1
  35   17   19 ar
  36   19   20 ar
  37   19   23 1
  38   20   21 ar
  39   20   39 1
  40   21   22 1
  41   22   40 1

#	End of record

