#	Name: ASD05730004
#	Creating user name:	WinNT
#	Creation time:	15. 06. 2019 21:02

#	Modifying user name:	WinNT
#	Modification time:	15. 06. 2019 21:02

#	Program:	/corina/corina34_cracker 3.40 0067  02.08.2006

@<TRIPOS>MOLECULE
ASD05730004
  72   76    0    0    0
SMALL
NO_CHARGES


@<TRIPOS>ATOM
   1 N1            -0.0148     1.3236     0.0132 N.ar    
   2 C2             0.0025    -0.0048     0.0106 C.ar    
   3 N3             1.1290    -0.7020     0.0089 N.ar    
   4 C4             2.3019    -0.0817     0.0096 C.ar    
   5 C5             2.3226     1.3304     0.0122 C.ar    
   6 C6             1.1063     2.0224     0.0141 C.ar    
   7 N7             3.4844    -0.7755     0.0082 N.am    
   8 C8             4.6645    -0.1305     0.0099 C.2     
   9 C9             4.7422     1.2769     0.0125 C.2     
  10 C10            3.6071     2.0238     0.0126 C.2     
  11 N11           -1.2001    -0.6851     0.0103 N.pl3   
  12 C12           -2.4019     0.0194     0.1316 C.ar    
  13 C13           -2.4730     1.1649     0.9203 C.ar    
  14 C14           -3.6858     1.8287     1.0087 C.ar    
  15 C15           -4.7769     1.3368     0.3170 C.ar    
  16 N16           -4.6768     0.2486    -0.4215 N.ar    
  17 C17           -3.5411    -0.4098    -0.5376 C.ar    
  18 C18           -6.0993     2.0536     0.4085 C.3     
  19 O19            5.6953    -0.7809     0.0094 O.2     
  20 C20            3.4621    -2.2403     0.0055 C.3     
  21 C21           -7.9347     3.1239    -0.9061 C.3     
  22 C22           -6.5921     2.3961    -0.9989 C.3     
  23 C23            4.1755    -2.7589    -1.2447 C.3     
  24 C24            4.1523    -4.2887    -1.2476 C.3     
  25 C25            4.8657    -4.8120     0.0006 C.3     
  26 C26            4.1523    -4.2934     1.2509 C.3     
  27 C27            4.1756    -2.7636     1.2537 C.3     
  28 O28            4.8440    -6.2408    -0.0020 O.3     
  29 C29           -8.4275     3.4664    -2.3134 C.3     
  30 N30           -9.7166     4.1652    -2.2243 N.3     
  31 C31          -10.1074     4.7184    -3.5291 C.3     
  32 C32           -9.6740     5.2212    -1.2024 C.3     
  33 C33          -11.0513     5.8819    -1.1013 C.3     
  34 O34          -11.4281     6.3861    -2.3855 O.3     
  35 C35          -11.4804     5.3842    -3.4047 C.3     
  36 C36            6.0879     1.9552     0.0147 C.3     
  37 H37            1.0846     3.1022     0.0165 H       
  38 H38            3.6541     3.1028     0.0139 H       
  39 H39           -1.2107    -1.6513    -0.0741 H       
  40 H40           -1.6043     1.5267     1.4503 H       
  41 H41           -3.7779     2.7202     1.6115 H       
  42 H42           -3.4980    -1.2972    -1.1517 H       
  43 H43           -6.8279     1.4104     0.9020 H       
  44 H44           -5.9762     2.9712     0.9837 H       
  45 H45            2.4291    -2.5880     0.0049 H       
  46 H46           -8.6633     2.4807    -0.4125 H       
  47 H47           -7.8116     4.0415    -0.3308 H       
  48 H48           -5.8636     3.0393    -1.4924 H       
  49 H49           -6.7152     1.4785    -1.5741 H       
  50 H50            3.6673    -2.3861    -2.1340 H       
  51 H51            5.2086    -2.4112    -1.2441 H       
  52 H52            3.1192    -4.6364    -1.2482 H       
  53 H53            4.6605    -4.6581    -2.1383 H       
  54 H54            5.8988    -4.4643     0.0013 H       
  55 H55            3.1193    -4.6411     1.2502 H       
  56 H56            4.6606    -4.6662     2.1401 H       
  57 H57            5.2087    -2.4159     1.2544 H       
  58 H58            3.6674    -2.3942     2.1444 H       
  59 H59            5.2797    -6.6422     0.7622 H       
  60 H60           -7.6990     4.1096    -2.8070 H       
  61 H61           -8.5507     2.5488    -2.8887 H       
  62 H62           -9.3717     5.4577    -3.8460 H       
  63 H63          -10.1575     3.9155    -4.2646 H       
  64 H64           -9.4078     4.7853    -0.2395 H       
  65 H65           -8.9314     5.9685    -1.4821 H       
  66 H66          -11.7843     5.1465    -0.7696 H       
  67 H67          -11.0094     6.7032    -0.3858 H       
  68 H68          -11.7487     5.8455    -4.3551 H       
  69 H69          -12.2258     4.6343    -3.1400 H       
  70 H70            6.4131     2.1206    -1.0124 H       
  71 H71            6.0115     2.9125     0.5303 H       
  72 H72            6.8126     1.3230     0.5279 H       
@<TRIPOS>BOND
   1    1    2 ar
   2    1    6 ar
   3    2    3 ar
   4    2   11 1
   5    3    4 ar
   6    4    5 ar
   7    4    7 1
   8    5    6 ar
   9    5   10 1
  10    6   37 1
  11    7    8 am
  12    7   20 1
  13    8    9 1
  14    8   19 2
  15    9   10 2
  16    9   36 1
  17   10   38 1
  18   11   12 1
  19   11   39 1
  20   12   13 ar
  21   12   17 ar
  22   13   14 ar
  23   13   40 1
  24   14   15 ar
  25   14   41 1
  26   15   16 ar
  27   15   18 1
  28   16   17 ar
  29   17   42 1
  30   18   22 1
  31   18   43 1
  32   18   44 1
  33   20   23 1
  34   20   27 1
  35   20   45 1
  36   21   22 1
  37   21   29 1
  38   21   46 1
  39   21   47 1
  40   22   48 1
  41   22   49 1
  42   23   24 1
  43   23   50 1
  44   23   51 1
  45   24   25 1
  46   24   52 1
  47   24   53 1
  48   25   26 1
  49   25   28 1
  50   25   54 1
  51   26   27 1
  52   26   55 1
  53   26   56 1
  54   27   57 1
  55   27   58 1
  56   28   59 1
  57   29   30 1
  58   29   60 1
  59   29   61 1
  60   30   31 1
  61   30   32 1
  62   31   35 1
  63   31   62 1
  64   31   63 1
  65   32   33 1
  66   32   64 1
  67   32   65 1
  68   33   34 1
  69   33   66 1
  70   33   67 1
  71   34   35 1
  72   35   68 1
  73   35   69 1
  74   36   70 1
  75   36   71 1
  76   36   72 1

#	End of record

