#	Name: ASD01920010
#	Creating user name:	WinNT
#	Creation time:	15. 06. 2019 20:11

#	Modifying user name:	WinNT
#	Modification time:	15. 06. 2019 20:11

#	Program:	/corina/corina34_cracker 3.40 0067  02.08.2006

@<TRIPOS>MOLECULE
ASD01920010
  36   39    0    0    0
SMALL
NO_CHARGES


@<TRIPOS>ATOM
   1 N1            -0.0174     1.3623     0.1049 N.am    
   2 C2             0.0022    -0.0038    -0.0001 C.2     
   3 C3            -1.1512    -0.7274    -0.0880 C.2     
   4 C4            -2.3852    -0.0663    -0.0712 C.2     
   5 C5            -2.3961     1.3361     0.0369 C.2     
   6 C6            -1.1845     2.0415     0.1306 C.2     
   7 O7            -3.6721    -0.4339    -0.1353 O.3     
   8 N8            -4.4363     0.5026    -0.0842 N.2     
   9 C9            -3.8262     1.6588     0.0221 C.2     
  10 C10           -4.4488     3.0029     0.1087 C.ar    
  11 O11           -1.1865     3.2569     0.2250 O.2     
  12 C12            1.2468     2.0968     0.1968 C.3     
  13 C13            1.3008    -0.7087    -0.0190 C.ar    
  14 C14            1.5188    -1.7997     0.8245 C.ar    
  15 C15            2.7335    -2.4532     0.8018 C.ar    
  16 C16            3.7347    -2.0294    -0.0541 C.ar    
  17 C17            3.5254    -0.9486    -0.8923 C.ar    
  18 C18            2.3132    -0.2903    -0.8846 C.ar    
  19 N19           -3.7912     3.9959     0.6926 N.ar    
  20 C20           -4.3079     5.2034     0.7898 C.ar    
  21 C21           -5.5644     5.4812     0.2824 C.ar    
  22 C22           -6.2866     4.4711    -0.3364 C.ar    
  23 C23           -5.7165     3.2127    -0.4290 C.ar    
  24 H24           -1.1125    -1.8036    -0.1705 H       
  25 H25            1.6348     2.2790    -0.8054 H       
  26 H26            1.0781     3.0490     0.6997 H       
  27 H27            1.9682     1.5089     0.7644 H       
  28 H28            0.7384    -2.1310     1.4935 H       
  29 H29            2.9035    -3.2972     1.4537 H       
  30 H30            4.6839    -2.5443    -0.0677 H       
  31 H31            4.3114    -0.6225    -1.5575 H       
  32 H32            2.1511     0.5532    -1.5393 H       
  33 H33           -3.7431     5.9873     1.2724 H       
  34 H34           -5.9794     6.4747     0.3675 H       
  35 H35           -7.2698     4.6630    -0.7401 H       
  36 H36           -6.2506     2.4032    -0.9042 H       
@<TRIPOS>BOND
   1    1    2 1
   2    1   12 1
   3    1    6 am
   4    2    3 2
   5    2   13 1
   6    3    4 1
   7    3   24 1
   8    4    5 2
   9    4    7 1
  10    5    6 1
  11    5    9 1
  12    6   11 2
  13    7    8 1
  14    8    9 2
  15    9   10 1
  16   10   19 ar
  17   10   23 ar
  18   12   25 1
  19   12   26 1
  20   12   27 1
  21   13   14 ar
  22   13   18 ar
  23   14   15 ar
  24   14   28 1
  25   15   16 ar
  26   15   29 1
  27   16   17 ar
  28   16   30 1
  29   17   18 ar
  30   17   31 1
  31   18   32 1
  32   19   20 ar
  33   20   21 ar
  34   20   33 1
  35   21   22 ar
  36   21   34 1
  37   22   23 ar
  38   22   35 1
  39   23   36 1

#	End of record

