#	Name: ASD01180054
#	Creating user name:	WinNT
#	Creation time:	15. 06. 2019 19:06

#	Modifying user name:	WinNT
#	Modification time:	15. 06. 2019 19:06

#	Program:	/corina/corina34_cracker 3.40 0067  02.08.2006

@<TRIPOS>MOLECULE
ASD01180054
 109  108    0    0    0
SMALL
NO_CHARGES


@<TRIPOS>ATOM
   1 C1            -0.0187     1.5258     0.0104 C.3     
   2 C2             0.0021    -0.0041     0.0020 C.3     
   3 C3            -1.4333    -0.5336     0.0129 C.3     
   4 C4            -1.4126    -2.0635     0.0045 C.3     
   5 C5            -2.8479    -2.5931     0.0153 C.3     
   6 C6            -2.8272    -4.1229     0.0069 C.3     
   7 C7            -4.2626    -4.6525     0.0178 C.3     
   8 C8            -4.2421    -6.1593     0.0095 C.2     
   9 C9            -4.8750    -6.8281     0.9413 C.2     
  10 C10           -4.8546    -8.3349     0.9330 C.3     
  11 C11           -4.3414    -8.8454     2.2810 C.3     
  12 C12           -4.3207   -10.3753     2.2726 C.3     
  13 C13           -3.8075   -10.8858     3.6205 C.3     
  14 C14           -3.7871   -12.3926     3.6122 C.2     
  15 O15           -3.3700   -13.0642     4.6970 O.3     
  16 C16           -3.3770   -14.5140     4.6179 C.3     
  17 C17           -2.0289   -15.0021     4.0839 C.3     
  18 O18           -1.0001   -14.6797     5.0218 O.3     
  19 P19            0.5495   -15.0464     4.7842 P.3     
  20 O20            1.4373   -14.4217     5.9732 O.3     
  21 C21            2.8648   -14.4843     5.9940 C.3     
  22 C22            3.3869   -13.7982     7.2579 C.3     
  23 N23            2.9476   -14.5508     8.4406 N.4     
  24 C24            1.4167     2.0553    -0.0004 C.3     
  25 O25           -4.1461   -12.9963     2.6291 O.2     
  26 C26           -3.6161   -15.0996     6.0110 C.3     
  27 O27            0.7185   -16.5821     4.7674 O.co2   
  28 O28            1.0155   -14.4623     3.4319 O.co2   
  29 O29           -2.4968   -14.7675     6.8743 O.3     
  30 C30           -2.5513   -15.2103     8.1402 C.2     
  31 C31           -1.4258   -14.9045     9.0946 C.3     
  32 C32           -1.7344   -15.5196    10.4611 C.3     
  33 C33           -0.5917   -15.2090    11.4300 C.3     
  34 C34           -0.9004   -15.8241    12.7965 C.3     
  35 C35            0.2423   -15.5136    13.7654 C.3     
  36 C36           -0.0663   -16.1287    15.1318 C.3     
  37 C37            1.0763   -15.8181    16.1007 C.3     
  38 C38            0.7677   -16.4332    17.4672 C.3     
  39 C39            1.9104   -16.1227    18.4361 C.3     
  40 C40            1.6018   -16.7378    19.8026 C.3     
  41 C41            2.7444   -16.4272    20.7715 C.3     
  42 C42            2.4358   -17.0423    22.1380 C.3     
  43 O43           -3.5026   -15.8543     8.5146 O.2     
  44 C44            4.8928   -13.7553     7.2206 C.2     
  45 O45            5.4632   -12.8039     6.7146 O.co2   
  46 O46            5.5408   -14.6719     7.6965 O.co2   
  47 H47           -0.5459     1.8868    -0.8726 H       
  48 H48           -0.5289     1.8773     0.9072 H       
  49 H49            0.5123    -0.3556    -0.8948 H       
  50 H50            0.5293    -0.3651     0.8851 H       
  51 H51           -1.9435    -0.1821     0.9097 H       
  52 H52           -1.9605    -0.1726    -0.8702 H       
  53 H53           -0.9024    -2.4150    -0.8923 H       
  54 H54           -0.8854    -2.4246     0.8875 H       
  55 H55           -3.3581    -2.2415     0.9121 H       
  56 H56           -3.3751    -2.2320    -0.8677 H       
  57 H57           -2.3170    -4.4744    -0.8899 H       
  58 H58           -2.3000    -4.4840     0.8900 H       
  59 H59           -4.7728    -4.3010     0.9146 H       
  60 H60           -4.7898    -4.2914    -0.8653 H       
  61 H61           -3.7057    -6.6878    -0.7647 H       
  62 H62           -5.4114    -6.2996     1.7155 H       
  63 H63           -5.8633    -8.7111     0.7622 H       
  64 H64           -4.1967    -8.6850     0.1376 H       
  65 H65           -3.3327    -8.4693     2.4518 H       
  66 H66           -4.9993    -8.4954     3.0764 H       
  67 H67           -5.3294   -10.7514     2.1017 H       
  68 H68           -3.6628   -10.7254     1.4771 H       
  69 H69           -2.7988   -10.5097     3.7914 H       
  70 H70           -4.4654   -10.5357     4.4159 H       
  71 H71           -4.1724   -14.8374     3.9464 H       
  72 H72           -2.0644   -16.0821     3.9406 H       
  73 H73           -1.8177   -14.5159     3.1315 H       
  74 H74            3.1829   -15.5268     5.9886 H       
  75 H75            3.2635   -13.9782     5.1148 H       
  76 H76            2.9956   -12.7821     7.3079 H       
  77 H77            3.3099   -15.4914     8.3944 H       
  78 H78            3.2920   -14.0983     9.2742 H       
  79 H79            1.9394   -14.5795     8.4656 H       
  80 H80            1.4019     3.1452     0.0056 H       
  81 H81            1.9439     1.6943     0.8826 H       
  82 H82            1.9269     1.7038    -0.8972 H       
  83 H83           -4.5328   -14.6827     6.4280 H       
  84 H84           -3.7099   -16.1832     5.9385 H       
  85 H85           -0.4974   -15.3250     8.7082 H       
  86 H86           -1.3203   -13.8245     9.1977 H       
  87 H87           -2.6628   -15.0991    10.8475 H       
  88 H88           -1.8399   -16.5995    10.3579 H       
  89 H89            0.3367   -15.6295    11.0436 H       
  90 H90           -0.4862   -14.1290    11.5331 H       
  91 H91           -1.8288   -15.4036    13.1829 H       
  92 H92           -1.0059   -16.9041    12.6933 H       
  93 H93            1.1707   -15.9341    13.3789 H       
  94 H94            0.3478   -14.4336    13.8685 H       
  95 H95           -0.9947   -15.7082    15.5182 H       
  96 H96           -0.1718   -17.2086    15.0287 H       
  97 H97            2.0048   -16.2386    15.7143 H       
  98 H98            1.1819   -14.7382    16.2039 H       
  99 H99           -0.1607   -16.0127    17.8536 H       
 100 H100           0.6622   -17.5132    17.3641 H       
 101 H101           2.8388   -16.5432    18.0497 H       
 102 H102           2.0159   -15.0427    18.5393 H       
 103 H103           0.6733   -16.3173    20.1890 H       
 104 H104           1.4962   -17.8178    19.6995 H       
 105 H105           3.6728   -16.8477    20.3851 H       
 106 H106           2.8499   -15.3473    20.8747 H       
 107 H107           2.3303   -18.1223    22.0348 H       
 108 H108           3.2499   -16.8211    22.8283 H       
 109 H109           1.5074   -16.6218    22.5244 H       
@<TRIPOS>BOND
   1    1    2 1
   2    1   24 1
   3    1   47 1
   4    1   48 1
   5    2    3 1
   6    2   49 1
   7    2   50 1
   8    3    4 1
   9    3   51 1
  10    3   52 1
  11    4    5 1
  12    4   53 1
  13    4   54 1
  14    5    6 1
  15    5   55 1
  16    5   56 1
  17    6    7 1
  18    6   57 1
  19    6   58 1
  20    7    8 1
  21    7   59 1
  22    7   60 1
  23    8    9 2
  24    8   61 1
  25    9   10 1
  26    9   62 1
  27   10   11 1
  28   10   63 1
  29   10   64 1
  30   11   12 1
  31   11   65 1
  32   11   66 1
  33   12   13 1
  34   12   67 1
  35   12   68 1
  36   13   14 1
  37   13   69 1
  38   13   70 1
  39   14   15 1
  40   14   25 2
  41   15   16 1
  42   16   17 1
  43   16   26 1
  44   16   71 1
  45   17   18 1
  46   17   72 1
  47   17   73 1
  48   18   19 1
  49   19   20 1
  50   19   27 ar
  51   19   28 ar
  52   20   21 1
  53   21   22 1
  54   21   74 1
  55   21   75 1
  56   22   23 1
  57   22   44 1
  58   22   76 1
  59   23   77 1
  60   23   78 1
  61   23   79 1
  62   24   80 1
  63   24   81 1
  64   24   82 1
  65   26   29 1
  66   26   83 1
  67   26   84 1
  68   29   30 1
  69   30   31 1
  70   30   43 2
  71   31   32 1
  72   31   85 1
  73   31   86 1
  74   32   33 1
  75   32   87 1
  76   32   88 1
  77   33   34 1
  78   33   89 1
  79   33   90 1
  80   34   35 1
  81   34   91 1
  82   34   92 1
  83   35   36 1
  84   35   93 1
  85   35   94 1
  86   36   37 1
  87   36   95 1
  88   36   96 1
  89   37   38 1
  90   37   97 1
  91   37   98 1
  92   38   39 1
  93   38   99 1
  94   38  100 1
  95   39   40 1
  96   39  101 1
  97   39  102 1
  98   40   41 1
  99   40  103 1
 100   40  104 1
 101   41   42 1
 102   41  105 1
 103   41  106 1
 104   42  107 1
 105   42  108 1
 106   42  109 1
 107   44   45 ar
 108   44   46 ar

#	End of record

