#	Name: ASD01912031
#	Creating user name:	WinNT
#	Creation time:	15. 06. 2019 19:58

#	Modifying user name:	WinNT
#	Modification time:	15. 06. 2019 19:58

#	Program:	/corina/corina34_cracker 3.40 0067  02.08.2006

@<TRIPOS>MOLECULE
ASD01912031
  34   37    0    0    0
SMALL
NO_CHARGES


@<TRIPOS>ATOM
   1 C1            -0.0160     1.3250     0.0093 C.ar    
   2 N2             0.0021    -0.0041     0.0020 N.ar    
   3 C3            -1.1259    -0.6969     0.0095 C.ar    
   4 N4            -2.3146    -0.1079     0.0245 N.ar    
   5 C5            -2.4249     1.2075     0.0327 C.ar    
   6 C6            -1.2623     1.9877     0.0307 C.ar    
   7 C7            -1.3355     3.4178     0.0398 C.1     
   8 N8            -1.3936     4.5523     0.0470 N.1     
   9 N9            -1.0632    -2.0795     0.0010 N.pl3   
  10 C10           -2.2255    -2.8229     0.0086 C.2     
  11 O11           -2.2808    -4.1664     0.0015 O.3     
  12 C12           -3.5822    -4.5354     0.0134 C.ar    
  13 C13           -4.3300    -3.3484     0.0283 C.ar    
  14 N14           -3.4342    -2.3236     0.0294 N.2     
  15 C15           -4.2319    -5.7592     0.0141 C.ar    
  16 C16           -5.6112    -5.8057     0.0294 C.ar    
  17 C17           -6.3540    -4.6351     0.0441 C.ar    
  18 C18           -5.7242    -3.4099     0.0433 C.ar    
  19 C19            1.2483     2.0965     0.0014 C.ar    
  20 C20            2.3760     1.6206     0.6792 C.ar    
  21 C21            3.5330     2.3787     0.6407 C.ar    
  22 C22            3.5377     3.5715    -0.0601 C.ar    
  23 N23            2.4587     3.9952    -0.6895 N.ar    
  24 C24            1.3362     3.3061    -0.6865 C.ar    
  25 H25           -3.3982     1.6753     0.0445 H       
  26 H26           -0.2021    -2.5259    -0.0103 H       
  27 H27           -3.6599    -6.6752     0.0023 H       
  28 H28           -6.1155    -6.7608     0.0295 H       
  29 H29           -7.4328    -4.6840     0.0560 H       
  30 H30           -6.3069    -2.5007     0.0546 H       
  31 H31            2.3442     0.6857     1.2190 H       
  32 H32            4.4228     2.0430     1.1525 H       
  33 H33            4.4391     4.1654    -0.0920 H       
  34 H34            0.4749     3.6836    -1.2176 H       
@<TRIPOS>BOND
   1    1    2 ar
   2    1   19 1
   3    1    6 ar
   4    2    3 ar
   5    3    4 ar
   6    3    9 1
   7    4    5 ar
   8    5    6 ar
   9    5   25 1
  10    6    7 1
  11    7    8 3
  12    9   10 1
  13    9   26 1
  14   10   11 1
  15   10   14 2
  16   11   12 1
  17   12   13 ar
  18   12   15 ar
  19   13   14 1
  20   13   18 ar
  21   15   16 ar
  22   15   27 1
  23   16   17 ar
  24   16   28 1
  25   17   18 ar
  26   17   29 1
  27   18   30 1
  28   19   20 ar
  29   19   24 ar
  30   20   21 ar
  31   20   31 1
  32   21   22 ar
  33   21   32 1
  34   22   23 ar
  35   22   33 1
  36   23   24 ar
  37   24   34 1

#	End of record

