#	Name: ASD00430003
#	Creating user name:	WinNT
#	Creation time:	15. 06. 2019 18:35

#	Modifying user name:	WinNT
#	Modification time:	15. 06. 2019 18:35

#	Program:	/corina/corina34_cracker 3.40 0067  02.08.2006

@<TRIPOS>MOLECULE
ASD00430003
  71   75    0    0    0
SMALL
NO_CHARGES


@<TRIPOS>ATOM
   1 C1            -0.0166     1.4748    -0.0596 C.2     
   2 C2             0.0035    -0.0037    -0.0669 C.2     
   3 N3             2.3856     0.1477     0.0536 N.am    
   4 C4             2.3199     1.4869     0.0574 C.2     
   5 N5             1.1498     2.1434     0.0026 N.am    
   6 C6            -1.0652    -0.9095    -0.1255 C.2     
   7 C7            -0.6963    -2.1977    -0.1144 C.2     
   8 S8             1.0512    -2.3268    -0.0276 S.3     
   9 C9             1.2399    -0.6291    -0.0086 C.2     
  10 C10           -1.6221    -3.3380    -0.1667 C.2     
  11 N11           -1.2791    -4.6079    -0.1567 N.2     
  12 C12           -2.3939    -5.3532    -0.2163 C.2     
  13 C13           -3.4470    -4.5186    -0.2639 C.2     
  14 O14           -2.9640    -3.2593    -0.2271 O.3     
  15 C15           -2.5056    -0.4718    -0.1947 C.3     
  16 O16           -1.0722     2.0783    -0.1140 O.2     
  17 O17            3.3522     2.1270     0.1127 O.2     
  18 C18            1.1428     3.6084     0.0100 C.3     
  19 C19            1.7528     4.1071     1.2946 C.2     
  20 C20            1.9566     4.1283    -1.1767 C.3     
  21 C21           -0.2978     4.1120    -0.0997 C.3     
  22 O22            1.5640     3.4263     2.4359 O.3     
  23 O23            2.4119     5.1198     1.2972 O.2     
  24 C24            3.6946    -0.5072     0.1153 C.3     
  25 C25            4.0784    -0.7429     1.5775 C.3     
  26 C26            5.4250    -1.4165     1.6411 C.ar    
  27 C27            5.5166    -2.7968     1.5335 C.ar    
  28 C28            6.7575    -3.4139     1.5924 C.ar    
  29 C29            7.8989    -2.6531     1.7580 C.ar    
  30 C30            7.8049    -1.2781     1.8655 C.ar    
  31 C31            6.5695    -0.6600     1.8009 C.ar    
  32 O32            4.3924    -3.5430     1.3710 O.3     
  33 C33            4.5624    -4.9581     1.2674 C.3     
  34 O34            4.1399     0.5102     2.2618 O.3     
  35 C35            3.8174     0.4299     3.6516 C.3     
  36 C36            5.0933     0.1753     4.4599 C.3     
  37 C37            3.1912     1.7508     4.1094 C.3     
  38 C38            2.9216     1.6840     5.6149 C.3     
  39 O39            4.1437     1.4141     6.3048 O.3     
  40 C40            4.7503     0.1693     5.9519 C.3     
  41 H41           -2.4372    -6.4323    -0.2247 H       
  42 H42           -4.4873    -4.8035    -0.3172 H       
  43 H43           -2.8017    -0.3602    -1.2377 H       
  44 H44           -3.1363    -1.2209     0.2839 H       
  45 H45           -2.6204     0.4823     0.3198 H       
  46 H46            1.5153     3.7676    -2.1058 H       
  47 H47            1.9513     5.2183    -1.1711 H       
  48 H48            2.9829     3.7695    -1.0985 H       
  49 H49           -0.8776     3.7416     0.7457 H       
  50 H50           -0.3031     5.2020    -0.0941 H       
  51 H51           -0.7391     3.7513    -1.0288 H       
  52 H52            1.9750     3.7852     3.2343 H       
  53 H53            3.6477    -1.4630    -0.4066 H       
  54 H54            4.4420     0.1292    -0.3585 H       
  55 H55            3.3311    -1.3793     2.0513 H       
  56 H56            6.8314    -4.4882     1.5092 H       
  57 H57            8.8653    -3.1331     1.8040 H       
  58 H58            8.6982    -0.6852     1.9956 H       
  59 H59            6.4991     0.4148     1.8802 H       
  60 H60            3.5892    -5.4326     1.1412 H       
  61 H61            5.1922    -5.1864     0.4076 H       
  62 H62            5.0353    -5.3346     2.1745 H       
  63 H63            3.1116    -0.3844     3.8157 H       
  64 H64            5.5157    -0.7896     4.1794 H       
  65 H65            5.8174     0.9641     4.2557 H       
  66 H66            3.8768     2.5714     3.8982 H       
  67 H67            2.2533     1.9127     3.5782 H       
  68 H68            2.5155     2.6369     5.9541 H       
  69 H69            2.2048     0.8892     5.8209 H       
  70 H70            4.0573    -0.6453     6.1623 H       
  71 H71            5.6615     0.0311     6.5338 H       
@<TRIPOS>BOND
   1    1    2 1
   2    1    5 am
   3    1   16 2
   4    2    6 1
   5    2    9 2
   6    3    4 am
   7    3   24 1
   8    3    9 1
   9    4    5 am
  10    4   17 2
  11    5   18 1
  12    6    7 2
  13    6   15 1
  14    7    8 1
  15    7   10 1
  16    8    9 1
  17   10   11 2
  18   10   14 1
  19   11   12 1
  20   12   13 2
  21   12   41 1
  22   13   14 1
  23   13   42 1
  24   15   43 1
  25   15   44 1
  26   15   45 1
  27   18   19 1
  28   18   20 1
  29   18   21 1
  30   19   22 1
  31   19   23 2
  32   20   46 1
  33   20   47 1
  34   20   48 1
  35   21   49 1
  36   21   50 1
  37   21   51 1
  38   22   52 1
  39   24   25 1
  40   24   53 1
  41   24   54 1
  42   25   26 1
  43   25   34 1
  44   25   55 1
  45   26   27 ar
  46   26   31 ar
  47   27   28 ar
  48   27   32 1
  49   28   29 ar
  50   28   56 1
  51   29   30 ar
  52   29   57 1
  53   30   31 ar
  54   30   58 1
  55   31   59 1
  56   32   33 1
  57   33   60 1
  58   33   61 1
  59   33   62 1
  60   34   35 1
  61   35   37 1
  62   35   36 1
  63   35   63 1
  64   36   40 1
  65   36   64 1
  66   36   65 1
  67   37   38 1
  68   37   66 1
  69   37   67 1
  70   38   39 1
  71   38   68 1
  72   38   69 1
  73   39   40 1
  74   40   70 1
  75   40   71 1

#	End of record

