#	Name: ASD05143029
#	Creating user name:	WinNT
#	Creation time:	15. 06. 2019 20:57

#	Modifying user name:	WinNT
#	Modification time:	15. 06. 2019 20:57

#	Program:	/corina/corina34_cracker 3.40 0067  02.08.2006

@<TRIPOS>MOLECULE
ASD05143029
 145  148    0    0    0
SMALL
NO_CHARGES


@<TRIPOS>ATOM
   1 C1            -2.1043     5.4008     7.5356 C.2     
   2 C2            -1.6185     4.6634     8.7567 C.3     
   3 N3            -1.2166     5.9365     6.6744 N.am    
   4 O4            -3.2938     5.5078     7.3251 O.2     
   5 C5            -1.6889     6.6534     5.4873 C.3     
   6 C6            -2.5223     5.7088     4.6190 C.3     
   7 C7            -2.5367     7.8247     5.9119 C.2     
   8 C8            -1.6303     4.5859     4.0856 C.3     
   9 C9            -2.4638     3.6413     3.2174 C.3     
  10 N10           -1.6096     2.5662     2.7067 N.pl3   
  11 C11           -2.1422     1.5909     1.8971 C.2     
  12 N12           -3.4764     1.6246     1.5668 N.pl3   
  13 N13           -1.3823     0.6344     1.4427 N.2     
  14 O14           -3.0292     7.8467     7.0200 O.2     
  15 N15           -2.7475     8.8478     5.0603 N.am    
  16 C16           -3.5717     9.9865     5.4731 C.3     
  17 C17           -2.6689    11.1778     5.7996 C.3     
  18 C18           -1.5128    10.7142     6.6877 C.3     
  19 C19           -0.3716    10.2441     5.8231 C.2     
  20 O20           -0.5743     9.5132     4.8767 O.2     
  21 N21            0.8954    10.6569     6.1246 N.am    
  22 C22            1.9588    10.1450     5.2302 C.3     
  23 C23            2.1089    11.1046     4.0481 C.3     
  24 C24            2.7724    10.3734     2.8794 C.3     
  25 C25            3.7308    11.3245     2.1598 C.3     
  26 N26            3.6792    11.0463     0.7104 N.am    
  27 C27            5.1333    11.1068     2.6662 C.2     
  28 N28            5.5208    11.6561     3.8343 N.am    
  29 O29            5.9133    10.4372     2.0226 O.2     
  30 C30            2.8530    11.8338    -0.0309 C.2     
  31 O31            2.2090    12.7159     0.4965 O.2     
  32 C32            2.7488    11.5962    -1.5154 C.3     
  33 N33            1.5340    12.2784    -2.0177 N.am    
  34 C34            3.9845    12.1659    -2.2150 C.3     
  35 C35            0.4810    11.4585    -2.3102 C.2     
  36 O36            0.5727    10.2583    -2.1621 O.2     
  37 C37           -0.7968    12.0739    -2.8198 C.3     
  38 N38           -1.9235    11.1809    -2.4832 N.am    
  39 C39           -1.0083    13.4374    -2.1589 C.3     
  40 C40           -3.0282    11.7694    -1.9475 C.2     
  41 O41           -3.0578    12.9674    -1.7611 O.2     
  42 C42           -4.2138    10.9106    -1.5900 C.3     
  43 C43            3.9364    11.8193    -3.6808 C.2     
  44 C44            3.2381    12.5656    -4.7302 C.ar    
  45 C45            3.4760    11.8672    -5.9278 C.ar    
  46 N46            4.2613    10.7803    -5.6151 N.pl3   
  47 C47            4.5302    10.7714    -4.2734 C.2     
  48 C48            2.4611    13.7257    -4.7427 C.ar    
  49 C49            1.9353    14.1771    -5.9202 C.ar    
  50 C50            2.1668    13.4912    -7.1048 C.ar    
  51 C51            2.9310    12.3452    -7.1153 C.ar    
  52 N52           -4.7996    11.4129    -0.3262 N.am    
  53 C53           -3.7606     9.4611    -1.4052 C.3     
  54 C54           -4.9590     8.5922    -1.1223 C.ar    
  55 C55           -5.9880     8.5146    -2.0416 C.ar    
  56 C56           -7.0897     7.7165    -1.7828 C.ar    
  57 C57           -7.1600     6.9964    -0.6028 C.ar    
  58 C58           -6.1288     7.0749     0.3172 C.ar    
  59 C59           -5.0255     7.8692     0.0537 C.ar    
  60 C60           -4.5100    10.3594     4.3542 C.2     
  61 N61           -3.9931    10.8460     3.1926 N.am    
  62 O62           -5.7083    10.2275     4.4866 O.2     
  63 C63           -4.9609    11.1944     2.1332 C.3     
  64 C64           -5.1828    12.7082     2.1191 C.3     
  65 C65           -4.4062    10.7529     0.8034 C.2     
  66 C66           -5.8460    13.1386     3.4289 C.3     
  67 N67           -6.0590    14.5921     3.4154 N.3     
  68 O68           -3.6247     9.8278     0.7372 O.2     
  69 C69           -1.0185    13.2710    -0.6380 C.3     
  70 C70           -1.3766    14.6056     0.0187 C.3     
  71 N71           -1.3864    14.4462     1.4750 N.pl3   
  72 C72           -1.6838    15.5189     2.2820 C.2     
  73 N73           -1.6929    15.3693     3.6486 N.pl3   
  74 N74           -1.9570    16.6776     1.7514 N.2     
  75 F75           -8.0956     7.6412    -2.6814 F       
  76 F76           -6.1963     6.3730     1.4696 F       
  77 H77           -1.5126     5.3632     9.5856 H       
  78 H78           -2.3382     3.8897     9.0242 H       
  79 H79           -0.6533     4.2038     8.5437 H       
  80 H80           -0.2652     5.8475     6.8407 H       
  81 H81           -0.8332     7.0126     4.9154 H       
  82 H82           -3.3269     5.2806     5.2169 H       
  83 H83           -2.9470     6.2638     3.7825 H       
  84 H84           -0.8257     5.0141     3.4878 H       
  85 H85           -1.2056     4.0309     4.9221 H       
  86 H86           -3.2684     3.2132     3.8152 H       
  87 H87           -2.8884     4.1963     2.3809 H       
  88 H88           -0.6683     2.5424     2.9397 H       
  89 H89           -4.0419     2.3365     1.9049 H       
  90 H90           -3.8522     0.9365     0.9956 H       
  91 H91           -1.7581    -0.0537     0.8715 H       
  92 H92           -2.3536     8.8303     4.1741 H       
  93 H93           -4.1494     9.7155     6.3568 H       
  94 H94           -2.2714    11.5964     4.8750 H       
  95 H95           -3.2471    11.9388     6.3237 H       
  96 H96           -1.1785    11.5434     7.3112 H       
  97 H97           -1.8487     9.8946     7.3230 H       
  98 H98            1.0852    11.2448     6.8724 H       
  99 H99            2.9002    10.0879     5.7767 H       
 100 H100           1.6845     9.1552     4.8652 H       
 101 H101           1.1253    11.4613     3.7424 H       
 102 H102           2.7269    11.9522     4.3444 H       
 103 H103           3.3278     9.5146     3.2564 H       
 104 H104           2.0067    10.0330     2.1822 H       
 105 H105           3.4295    12.3556     2.3447 H       
 106 H106           4.2066    10.3388     0.3077 H       
 107 H107           4.8970    12.1916     4.3491 H       
 108 H108           6.4236    11.5160     4.1603 H       
 109 H109           2.6749    10.5263    -1.7106 H       
 110 H110           1.4892    13.2407    -2.1315 H       
 111 H111           4.0009    13.2495    -2.0981 H       
 112 H112           4.8832    11.7388    -1.7699 H       
 113 H113          -0.7377    12.1954    -3.9014 H       
 114 H114          -1.8789    10.2240    -2.6357 H       
 115 H115          -0.1994    14.1095    -2.4454 H       
 116 H116          -1.9607    13.8555    -2.4850 H       
 117 H117          -4.9577    10.9651    -2.3849 H       
 118 H118           4.5796    10.1212    -6.2516 H       
 119 H119           5.1255    10.0271    -3.7654 H       
 120 H120           2.2762    14.2641    -3.8249 H       
 121 H121           1.3344    15.0745    -5.9294 H       
 122 H122           1.7441    13.8603    -8.0276 H       
 123 H123           3.1056    11.8189    -8.0421 H       
 124 H124          -5.4193    12.1588    -0.3020 H       
 125 H125          -3.2679     9.1158    -2.3141 H       
 126 H126          -3.0636     9.4021    -0.5693 H       
 127 H127          -5.9331     9.0768    -2.9621 H       
 128 H128          -8.0190     6.3740    -0.3999 H       
 129 H129          -4.2208     7.9306     0.7713 H       
 130 H130          -3.0379    10.9585     3.0674 H       
 131 H131          -5.9076    10.6883     2.3225 H       
 132 H132          -4.2235    13.2150     2.0138 H       
 133 H133          -5.8275    12.9731     1.2811 H       
 134 H134          -6.8053    12.6318     3.5342 H       
 135 H135          -5.2013    12.8737     4.2669 H       
 136 H136          -6.4963    14.9014     4.2704 H       
 137 H137          -5.1924    15.0830     3.2542 H       
 138 H138          -1.7572    12.5193    -0.3597 H       
 139 H139          -0.0319    12.9532    -0.3007 H       
 140 H140          -0.6380    15.3573    -0.2596 H       
 141 H141          -2.3632    14.9234    -0.3186 H       
 142 H142          -1.1830    13.5839     1.8699 H       
 143 H143          -1.4895    14.5070     4.0435 H       
 144 H144          -1.9027    16.1261     4.2180 H       
 145 H145          -2.1668    17.4344     2.3207 H       
@<TRIPOS>BOND
   1    1    2 1
   2    1    3 am
   3    1    4 2
   4    2   77 1
   5    2   78 1
   6    2   79 1
   7    3    5 1
   8    3   80 1
   9    5    6 1
  10    5    7 1
  11    5   81 1
  12    6    8 1
  13    6   82 1
  14    6   83 1
  15    7   14 2
  16    7   15 am
  17    8    9 1
  18    8   84 1
  19    8   85 1
  20    9   10 1
  21    9   86 1
  22    9   87 1
  23   10   11 1
  24   10   88 1
  25   11   12 1
  26   11   13 2
  27   12   89 1
  28   12   90 1
  29   13   91 1
  30   15   16 1
  31   15   92 1
  32   16   17 1
  33   16   60 1
  34   16   93 1
  35   17   18 1
  36   17   94 1
  37   17   95 1
  38   18   19 1
  39   18   96 1
  40   18   97 1
  41   19   20 2
  42   19   21 am
  43   21   22 1
  44   21   98 1
  45   22   23 1
  46   22   99 1
  47   22  100 1
  48   23   24 1
  49   23  101 1
  50   23  102 1
  51   24   25 1
  52   24  103 1
  53   24  104 1
  54   25   26 1
  55   25   27 1
  56   25  105 1
  57   26   30 am
  58   26  106 1
  59   27   28 am
  60   27   29 2
  61   28  107 1
  62   28  108 1
  63   30   31 2
  64   30   32 1
  65   32   33 1
  66   32   34 1
  67   32  109 1
  68   33   35 am
  69   33  110 1
  70   34   43 1
  71   34  111 1
  72   34  112 1
  73   35   36 2
  74   35   37 1
  75   37   38 1
  76   37   39 1
  77   37  113 1
  78   38   40 am
  79   38  114 1
  80   39   69 1
  81   39  115 1
  82   39  116 1
  83   40   41 2
  84   40   42 1
  85   42   52 1
  86   42   53 1
  87   42  117 1
  88   43   44 1
  89   43   47 2
  90   44   45 ar
  91   44   48 ar
  92   45   46 1
  93   45   51 ar
  94   46   47 1
  95   46  118 1
  96   47  119 1
  97   48   49 ar
  98   48  120 1
  99   49   50 ar
 100   49  121 1
 101   50   51 ar
 102   50  122 1
 103   51  123 1
 104   52   65 am
 105   52  124 1
 106   53   54 1
 107   53  125 1
 108   53  126 1
 109   54   55 ar
 110   54   59 ar
 111   55   56 ar
 112   55  127 1
 113   56   57 ar
 114   56   75 1
 115   57   58 ar
 116   57  128 1
 117   58   59 ar
 118   58   76 1
 119   59  129 1
 120   60   61 am
 121   60   62 2
 122   61   63 1
 123   61  130 1
 124   63   64 1
 125   63   65 1
 126   63  131 1
 127   64   66 1
 128   64  132 1
 129   64  133 1
 130   65   68 2
 131   66   67 1
 132   66  134 1
 133   66  135 1
 134   67  136 1
 135   67  137 1
 136   69   70 1
 137   69  138 1
 138   69  139 1
 139   70   71 1
 140   70  140 1
 141   70  141 1
 142   71   72 1
 143   71  142 1
 144   72   73 1
 145   72   74 2
 146   73  143 1
 147   73  144 1
 148   74  145 1

#	End of record

