#	Name: ASD03090842
#	Creating user name:	WinNT
#	Creation time:	15. 06. 2019 20:29

#	Modifying user name:	WinNT
#	Modification time:	15. 06. 2019 20:29

#	Program:	/corina/corina34_cracker 3.40 0067  02.08.2006

@<TRIPOS>MOLECULE
ASD03090842
  42   45    0    0    0
SMALL
NO_CHARGES


@<TRIPOS>ATOM
   1 C1             0.0271     1.4578     0.0103 C.ar    
   2 C2             0.0662     0.0761    -0.0090 C.ar    
   3 C3             1.2824    -0.5808    -0.0241 C.ar    
   4 C4             2.4595     0.1440    -0.0203 C.ar    
   5 C5             2.4204     1.5257    -0.0019 C.ar    
   6 C6             1.2042     2.1825     0.0146 C.ar    
   7 S7            -1.5231     2.2952     0.0221 S.o2    
   8 O8            -1.2822     3.5929    -0.5043 O.2     
   9 O9            -2.4702     1.3941    -0.5350 O.2     
  10 N10           -1.9543     2.5060     1.6070 N.am    
  11 S11           -4.2806     3.7737     0.7833 S.3     
  12 C12           -3.0783     3.1091     1.9053 C.2     
  13 N13           -3.5839     3.3654     3.1528 N.pl3   
  14 C14           -4.7847     4.0134     3.2040 C.2     
  15 C15           -5.3668     4.3432     2.0633 C.2     
  16 O16           -0.9096     1.8658     7.7635 O.3     
  17 C17            0.0305     0.7911     7.6579 C.3     
  18 C18            0.9050     1.0377     6.4211 C.3     
  19 O19            0.0527     1.0836     5.2717 O.3     
  20 C20           -1.0763     1.8367     5.3768 C.ar    
  21 C21           -1.5589     2.2255     6.6215 C.ar    
  22 C22           -1.7493     2.2158     4.2260 C.ar    
  23 C23           -2.9034     2.9817     4.3168 C.ar    
  24 C24           -3.3837     3.3669     5.5609 C.ar    
  25 C25           -2.7131     2.9892     6.7084 C.ar    
  26 F26            1.5809     2.2551     6.5563 F       
  27 F27            1.8294    -0.0031     6.2818 F       
  28 F28            0.8330     0.7521     8.8032 F       
  29 F29           -0.6530    -0.4216     7.5184 F       
  30 C30           -6.6827     5.0563     1.8876 C.3     
  31 H31           -0.8534    -0.4901    -0.0120 H       
  32 H32            1.3130    -1.6602    -0.0385 H       
  33 H33            3.4097    -0.3692    -0.0313 H       
  34 H34            3.3401     2.0919     0.0015 H       
  35 H35            1.1737     3.2620     0.0294 H       
  36 H36           -5.2471     4.2499     4.1509 H       
  37 H37           -1.3749     1.9162     3.2582 H       
  38 H38           -4.2822     3.9619     5.6320 H       
  39 H39           -3.0887     3.2897     7.6754 H       
  40 H40           -6.8891     5.1816     0.8247 H       
  41 H41           -7.4785     4.4686     2.3454 H       
  42 H42           -6.6325     6.0346     2.3657 H       
@<TRIPOS>BOND
   1    1    2 ar
   2    1    6 ar
   3    1    7 1
   4    2    3 ar
   5    2   31 1
   6    3    4 ar
   7    3   32 1
   8    4    5 ar
   9    4   33 1
  10    5    6 ar
  11    5   34 1
  12    6   35 1
  13    7    8 2
  14    7    9 2
  15    7   10 am
  16   10   12 2
  17   11   12 1
  18   11   15 1
  19   12   13 1
  20   13   14 1
  21   13   23 1
  22   14   15 2
  23   14   36 1
  24   15   30 1
  25   16   17 1
  26   16   21 1
  27   17   18 1
  28   17   28 1
  29   17   29 1
  30   18   19 1
  31   18   26 1
  32   18   27 1
  33   19   20 1
  34   20   21 ar
  35   20   22 ar
  36   21   25 ar
  37   22   23 ar
  38   22   37 1
  39   23   24 ar
  40   24   25 ar
  41   24   38 1
  42   25   39 1
  43   30   40 1
  44   30   41 1
  45   30   42 1

#	End of record

