#	Name: ASD04590474
#	Creating user name:	WinNT
#	Creation time:	15. 06. 2019 20:50

#	Modifying user name:	WinNT
#	Modification time:	15. 06. 2019 20:50

#	Program:	/corina/corina34_cracker 3.40 0067  02.08.2006

@<TRIPOS>MOLECULE
ASD04590474
  55   59    0    0    0
SMALL
NO_CHARGES


@<TRIPOS>ATOM
   1 C1            -0.0167     1.3832     0.0096 C.ar    
   2 C2             0.0021    -0.0041     0.0020 C.ar    
   3 C3             2.4020     0.0223    -0.0204 C.ar    
   4 C4             2.3769     1.4283    -0.0130 C.ar    
   5 C5             1.1624     2.0986     0.0022 C.ar    
   6 N6             3.7040    -0.3552    -0.0357 N.2     
   7 C7             4.4708     0.7083    -0.0383 C.2     
   8 N8             3.6969     1.8375    -0.0246 N.pl3   
   9 C9             5.9482     0.6906    -0.0531 C.2     
  10 C10            6.7657    -0.4631    -0.0674 C.2     
  11 C11            8.0577    -0.0540    -0.0782 C.2     
  12 N12            8.0646     1.3049    -0.0711 N.pl3   
  13 N13            6.7360     1.7480    -0.0612 N.2     
  14 N14            6.3186    -1.7948    -0.0696 N.am    
  15 C15            7.2106    -2.8051    -0.0839 C.2     
  16 O16            8.3994    -2.5644    -0.0949 O.2     
  17 C17            1.1969    -0.6870    -0.0126 C.ar    
  18 C18           -1.2962    -0.7693     0.0104 C.3     
  19 N19           -1.7313    -1.0105    -1.3718 N.3     
  20 C20            6.7310    -4.2337    -0.0862 C.3     
  21 C21            7.9180    -5.1621    -0.1031 C.ar    
  22 C22            8.4747    -5.5939     1.0862 C.ar    
  23 C23           -2.8598    -1.9518    -1.4122 C.3     
  24 C24           -0.6168    -1.4976    -2.1976 C.3     
  25 C25           -1.0982    -1.6784    -3.6396 C.3     
  26 O26           -2.2148    -2.5718    -3.6557 O.3     
  27 C27           -3.3187    -2.1280    -2.8622 C.3     
  28 C28            9.5636    -6.4454     1.0706 C.ar    
  29 C29           10.0954    -6.8654    -0.1342 C.ar    
  30 C30            9.5381    -6.4343    -1.3235 C.ar    
  31 C31            8.4466    -5.5863    -1.3079 C.ar    
  32 H32           -0.9614     1.9066     0.0170 H       
  33 H33            1.1403     3.1784     0.0079 H       
  34 H34            4.0155     2.7537    -0.0235 H       
  35 H35            8.9274    -0.6942    -0.0899 H       
  36 H36            8.8529     1.8700    -0.0757 H       
  37 H37            5.3679    -1.9873    -0.0607 H       
  38 H38            1.2037    -1.7669    -0.0178 H       
  39 H39           -1.1524    -1.7232     0.5177 H       
  40 H40           -2.0561    -0.1898     0.5346 H       
  41 H41            6.1374    -4.4192     0.8090 H       
  42 H42            6.1191    -4.4102    -0.9708 H       
  43 H43            8.0592    -5.2658     2.0275 H       
  44 H44           -2.5450    -2.9149    -1.0105 H       
  45 H45           -3.6829    -1.5591    -0.8152 H       
  46 H46            0.1975    -0.7734    -2.1738 H       
  47 H47           -0.2661    -2.4535    -1.8084 H       
  48 H48           -1.3986    -0.7129    -4.0468 H       
  49 H49           -0.2912    -2.0935    -4.2434 H       
  50 H50           -4.1177    -2.8683    -2.9036 H       
  51 H51           -3.6838    -1.1756    -3.2467 H       
  52 H52            9.9990    -6.7822     1.9998 H       
  53 H53           10.9465    -7.5301    -0.1463 H       
  54 H54            9.9538    -6.7622    -2.2648 H       
  55 H55            8.0111    -5.2494    -2.2371 H       
@<TRIPOS>BOND
   1    1    2 ar
   2    1    5 ar
   3    1   32 1
   4    2   17 ar
   5    2   18 1
   6    3    4 ar
   7    3    6 1
   8    3   17 ar
   9    4    5 ar
  10    4    8 1
  11    5   33 1
  12    6    7 2
  13    7    8 1
  14    7    9 1
  15    8   34 1
  16    9   10 1
  17    9   13 2
  18   10   11 2
  19   10   14 1
  20   11   12 1
  21   11   35 1
  22   12   13 1
  23   12   36 1
  24   14   15 am
  25   14   37 1
  26   15   16 2
  27   15   20 1
  28   17   38 1
  29   18   19 1
  30   18   39 1
  31   18   40 1
  32   19   23 1
  33   19   24 1
  34   20   21 1
  35   20   41 1
  36   20   42 1
  37   21   22 ar
  38   21   31 ar
  39   22   28 ar
  40   22   43 1
  41   23   27 1
  42   23   44 1
  43   23   45 1
  44   24   25 1
  45   24   46 1
  46   24   47 1
  47   25   26 1
  48   25   48 1
  49   25   49 1
  50   26   27 1
  51   27   50 1
  52   27   51 1
  53   28   29 ar
  54   28   52 1
  55   29   30 ar
  56   29   53 1
  57   30   31 ar
  58   30   54 1
  59   31   55 1

#	End of record

