#	Name: ASD01880023
#	Creating user name:	WinNT
#	Creation time:	15. 06. 2019 19:39

#	Modifying user name:	WinNT
#	Modification time:	15. 06. 2019 19:39

#	Program:	/corina/corina34_cracker 3.40 0067  02.08.2006

@<TRIPOS>MOLECULE
ASD01880023
  56   58    0    0    0
SMALL
NO_CHARGES


@<TRIPOS>ATOM
   1 N1            -0.0154     1.2831     0.0091 N.2     
   2 N2             0.0021    -0.0041     0.0020 N.pl3   
   3 N3             1.2238    -0.4138    -0.0118 N.2     
   4 C4             2.0053     0.6478    -0.0136 C.2     
   5 N5             1.1987     1.7185    -0.0002 N.2     
   6 C6             3.4895     0.6561    -0.0270 C.ar    
   7 C7             4.1809     1.8659    -0.0272 C.ar    
   8 C8             5.5599     1.8706    -0.0397 C.ar    
   9 C9             6.2594     0.6715    -0.0525 C.ar    
  10 C10            5.5732    -0.5354    -0.0524 C.ar    
  11 C11            4.1942    -0.5460    -0.0336 C.ar    
  12 C12           14.0196    -2.7941    -0.1456 C.ar    
  13 C13           14.7055    -1.5826    -0.1462 C.ar    
  14 C14           16.0700    -1.5613    -0.1542 C.ar    
  15 C15           16.7911    -2.7629    -0.1614 C.ar    
  16 C16           16.1014    -3.9889    -0.1603 C.ar    
  17 C17           14.7170    -3.9946    -0.1527 C.ar    
  18 O18           16.7885    -5.1582    -0.1672 O.3     
  19 C19           18.2558    -2.7423    -0.1704 C.2     
  20 C20           18.9909    -1.4267    -0.1720 C.3     
  21 O21           18.8772    -3.7845    -0.1766 O.2     
  22 O22            7.6180     0.6790    -0.0658 O.3     
  23 C23            8.2737    -0.5905    -0.0785 C.3     
  24 C24           12.0071    -1.5321    -0.1196 C.3     
  25 C25            9.7894    -0.3816    -0.0922 C.3     
  26 C26           10.4914    -1.7410    -0.1059 C.3     
  27 O27           12.6628    -2.8017    -0.1324 O.3     
  28 Br28          13.7770    -5.6354    -0.1506 Br      
  29 C29           20.4989    -1.6851    -0.1820 C.3     
  30 C30           21.2435    -0.3546    -0.3093 C.3     
  31 C31           20.9067    -2.3751     1.1213 C.3     
  32 H32           -0.7815    -0.5759     0.0069 H       
  33 H33            3.6372     2.7991    -0.0179 H       
  34 H34            6.0963     2.8080    -0.0399 H       
  35 H35            6.1199    -1.4668    -0.0627 H       
  36 H36            3.6609    -1.4852    -0.0335 H       
  37 H37           14.1543    -0.6539    -0.1407 H       
  38 H38           16.5947    -0.6173    -0.1553 H       
  39 H39           16.9929    -5.4995     0.7141 H       
  40 H40           18.7141    -0.8569    -1.0590 H       
  41 H41           18.7251    -0.8609     0.7209 H       
  42 H42            7.9926    -1.1536     0.8114 H       
  43 H43            7.9753    -1.1447    -0.9684 H       
  44 H44           12.2882    -0.9690    -1.0096 H       
  45 H45           12.3055    -0.9779     0.7703 H       
  46 H46           10.0705     0.1815    -0.9822 H       
  47 H47           10.0878     0.1725     0.7977 H       
  48 H48           10.1930    -2.2951    -0.9958 H       
  49 H49           10.2103    -2.3041     0.7840 H       
  50 H50           20.7522    -2.3256    -1.0268 H       
  51 H51           20.9902     0.2858     0.5355 H       
  52 H52           22.3178    -0.5387    -0.3164 H       
  53 H53           20.9530     0.1369    -1.2378 H       
  54 H54           20.6534    -1.7347     1.9662 H       
  55 H55           20.3763    -3.3230     1.2120 H       
  56 H56           21.9810    -2.5592     1.1142 H       
@<TRIPOS>BOND
   1    1    2 1
   2    1    5 2
   3    2    3 1
   4    2   32 1
   5    3    4 2
   6    4    5 1
   7    4    6 1
   8    6    7 ar
   9    6   11 ar
  10    7    8 ar
  11    7   33 1
  12    8    9 ar
  13    8   34 1
  14    9   10 ar
  15    9   22 1
  16   10   11 ar
  17   10   35 1
  18   11   36 1
  19   12   13 ar
  20   12   17 ar
  21   12   27 1
  22   13   14 ar
  23   13   37 1
  24   14   15 ar
  25   14   38 1
  26   15   16 ar
  27   15   19 1
  28   16   17 ar
  29   16   18 1
  30   17   28 1
  31   18   39 1
  32   19   20 1
  33   19   21 2
  34   20   29 1
  35   20   40 1
  36   20   41 1
  37   22   23 1
  38   23   25 1
  39   23   42 1
  40   23   43 1
  41   24   27 1
  42   24   26 1
  43   24   44 1
  44   24   45 1
  45   25   26 1
  46   25   46 1
  47   25   47 1
  48   26   48 1
  49   26   49 1
  50   29   30 1
  51   29   31 1
  52   29   50 1
  53   30   51 1
  54   30   52 1
  55   30   53 1
  56   31   54 1
  57   31   55 1
  58   31   56 1

#	End of record

