#	Name: ASD07931717
#	Creating user name:	WinNT
#	Creation time:	15. 06. 2019 21:13

#	Modifying user name:	WinNT
#	Modification time:	15. 06. 2019 21:13

#	Program:	/corina/corina34_cracker 3.40 0067  02.08.2006

@<TRIPOS>MOLECULE
ASD07931717
  35   36    0    0    0
SMALL
NO_CHARGES


@<TRIPOS>ATOM
   1 C1            -0.2397     0.7984    -1.1717 C.3     
   2 C2            -0.1758    -0.6528    -0.6912 C.3     
   3 N3             0.5238    -0.7109     0.5992 N.3     
   4 C4             0.6044    -2.0922     1.0926 C.3     
   5 C5             1.7811    -2.3359     2.0522 C.3     
   6 C6             0.8231    -3.2090     2.8797 C.3     
   7 C7            -0.3244    -2.3756     2.2850 C.3     
   8 O8             2.8580    -3.0676     1.4632 O.3     
   9 C9             4.0862    -2.9171     2.0251 C.ar    
  10 C10            5.1980    -3.4970     1.4309 C.ar    
  11 C11            6.4452    -3.3426     2.0039 C.ar    
  12 C12            6.5864    -2.6112     3.1691 C.ar    
  13 C13            5.4802    -2.0329     3.7633 C.ar    
  14 C14            4.2314    -2.1788     3.1904 C.ar    
  15 C15            5.0447    -4.2949     0.1617 C.3     
  16 F16            6.2955    -4.7748    -0.2413 F       
  17 F17            4.1830    -5.3731     0.3899 F       
  18 F18            4.5134    -3.4776    -0.8417 F       
  19 O19            1.0825     1.2711    -1.4369 O.3     
  20 H20           -0.8348     0.8534    -2.0833 H       
  21 H21           -0.6987     1.4167    -0.4003 H       
  22 H22           -1.1873    -1.0416    -0.5740 H       
  23 H23            0.3623    -1.2546    -1.4236 H       
  24 H24            1.4414    -0.2968     0.5320 H       
  25 H25            0.5303    -2.8323     0.2958 H       
  26 H26            2.1131    -1.4377     2.5729 H       
  27 H27            0.8087    -4.2544     2.5715 H       
  28 H28            0.9398    -3.0856     3.9564 H       
  29 H29           -0.5680    -1.4883     2.8693 H       
  30 H30           -1.2027    -2.9658     2.0237 H       
  31 H31            7.3109    -3.7937     1.5419 H       
  32 H32            7.5624    -2.4920     3.6158 H       
  33 H33            5.5930    -1.4625     4.6734 H       
  34 H34            3.3682    -1.7228     3.6523 H       
  35 H35            1.1183     2.1866    -1.7462 H       
@<TRIPOS>BOND
   1    1    2 1
   2    1   19 1
   3    1   20 1
   4    1   21 1
   5    2    3 1
   6    2   22 1
   7    2   23 1
   8    3    4 1
   9    3   24 1
  10    4    5 1
  11    4    7 1
  12    4   25 1
  13    5    6 1
  14    5    8 1
  15    5   26 1
  16    6    7 1
  17    6   27 1
  18    6   28 1
  19    7   29 1
  20    7   30 1
  21    8    9 1
  22    9   10 ar
  23    9   14 ar
  24   10   11 ar
  25   10   15 1
  26   11   12 ar
  27   11   31 1
  28   12   13 ar
  29   12   32 1
  30   13   14 ar
  31   13   33 1
  32   14   34 1
  33   15   16 1
  34   15   17 1
  35   15   18 1
  36   19   35 1

#	End of record

