#	Name: ASD00311031
#	Creating user name:	WinNT
#	Creation time:	15. 06. 2019 18:34

#	Modifying user name:	WinNT
#	Modification time:	15. 06. 2019 18:34

#	Program:	/corina/corina34_cracker 3.40 0067  02.08.2006

@<TRIPOS>MOLECULE
ASD00311031
  36   38    0    0    0
SMALL
NO_CHARGES


@<TRIPOS>ATOM
   1 C1            -0.0169     1.3922     0.0097 C.ar    
   2 C2             0.0021    -0.0041     0.0020 C.ar    
   3 C3             1.2207    -0.6857    -0.0133 C.ar    
   4 C4             2.4043     0.0194    -0.0208 C.ar    
   5 C5             2.3853     1.4155    -0.0127 C.ar    
   6 C6             1.1667     2.0971     0.0022 C.ar    
   7 C7             3.6372     3.6378    -0.0117 C.2     
   8 C8             3.6571     2.1731    -0.0202 C.2     
   9 C9             5.9940     6.5060    -0.0174 C.ar    
  10 C10            4.7764     5.8012    -0.0100 C.ar    
  11 C11            4.7964     4.3283    -0.0186 C.2     
  12 C12            5.9879     7.8690    -0.0096 C.ar    
  13 C13            4.7444     8.5315     0.0058 C.ar    
  14 C14            3.5507     7.7634     0.0131 C.ar    
  15 N15            3.6148     6.4319     0.0049 N.ar    
  16 O16            4.7188     1.5792    -0.0336 O.2     
  17 C17            2.3100     8.4285     0.0286 C.ar    
  18 C18            2.2733     9.7885     0.0362 C.ar    
  19 C19            3.4471    10.5396     0.0290 C.ar    
  20 C20            4.6664     9.9324     0.0150 C.ar    
  21 C21           -1.2685    -0.7609     0.0106 C.2     
  22 O22           -2.3284    -0.1681     0.0243 O.2     
  23 O23           -1.2502    -2.1077     0.0032 O.3     
  24 H24           -0.9594     1.9194     0.0170 H       
  25 H25            1.2354    -1.7656    -0.0189 H       
  26 H26            3.3468    -0.5078    -0.0326 H       
  27 H27            1.1521     3.1770     0.0085 H       
  28 H28            2.6947     4.1650     0.0001 H       
  29 H29            6.9308     5.9686    -0.0247 H       
  30 H30            5.7389     3.8011    -0.0304 H       
  31 H31            6.9126     8.4270    -0.0147 H       
  32 H32            1.3909     7.8613     0.0340 H       
  33 H33            1.3190    10.2942     0.0477 H       
  34 H34            3.3894    11.6181     0.0353 H       
  35 H35            5.5685    10.5262     0.0095 H       
  36 H36           -2.1057    -2.5584     0.0092 H       
@<TRIPOS>BOND
   1    1    2 ar
   2    1    6 ar
   3    1   24 1
   4    2    3 ar
   5    2   21 1
   6    3    4 ar
   7    3   25 1
   8    4    5 ar
   9    4   26 1
  10    5    6 ar
  11    5    8 1
  12    6   27 1
  13    7    8 1
  14    7   11 2
  15    7   28 1
  16    8   16 2
  17    9   10 ar
  18    9   12 ar
  19    9   29 1
  20   10   11 1
  21   10   15 ar
  22   11   30 1
  23   12   13 ar
  24   12   31 1
  25   13   14 ar
  26   13   20 ar
  27   14   15 ar
  28   14   17 ar
  29   17   18 ar
  30   17   32 1
  31   18   19 ar
  32   18   33 1
  33   19   20 ar
  34   19   34 1
  35   20   35 1
  36   21   22 2
  37   21   23 1
  38   23   36 1

#	End of record

