#	Name: ASD02038664
#	Creating user name:	WinNT
#	Creation time:	15. 06. 2019 20:17

#	Modifying user name:	WinNT
#	Modification time:	15. 06. 2019 20:17

#	Program:	/corina/corina34_cracker 3.40 0067  02.08.2006

@<TRIPOS>MOLECULE
ASD02038664
  43   44    0    0    0
SMALL
NO_CHARGES


@<TRIPOS>ATOM
   1 C1            -0.0167     1.3831     0.0096 C.ar    
   2 C2             0.0021    -0.0041     0.0020 C.ar    
   3 O3            -1.1648    -0.7006     0.0090 O.3     
   4 C4            -1.0693    -2.1264     0.0004 C.3     
   5 C5            -2.4744    -2.7318     0.0101 C.3     
   6 C6            -2.3732    -4.2539     0.1267 C.3     
   7 N7            -3.7223    -4.8352     0.1359 N.3     
   8 C8            -3.6642    -6.2988     0.2470 C.3     
   9 C9            -5.0849    -6.8665     0.2535 C.3     
  10 C10            1.1708     2.0889     0.0021 C.ar    
  11 C11            2.3774     1.4139    -0.0135 C.ar    
  12 C12            2.3988     0.0314    -0.0211 C.ar    
  13 C13            1.2141    -0.6789    -0.0132 C.ar    
  14 O14           -3.1483    -2.3907    -1.2031 O.3     
  15 C15           -5.0284    -8.9667     1.6131 C.ar    
  16 C16           -4.9742   -10.3451     1.7182 C.ar    
  17 C17           -5.0253    -8.3680     0.3675 C.ar    
  18 C18           -4.9681    -9.1459    -0.7742 C.ar    
  19 C19           -4.9139   -10.5230    -0.6710 C.ar    
  20 C20           -4.9169   -11.1240     0.5751 C.ar    
  21 Cl21          -4.8494   -12.8538     0.7052 Cl      
  22 Cl22          -4.9774   -11.0977     3.2826 Cl      
  23 N23            3.6482     2.1725    -0.0225 N.pl3   
  24 O24            3.6305     3.3904    -0.0162 O.2     
  25 O25            4.7117     1.5790    -0.0363 O.2     
  26 H26           -0.9590     1.9108     0.0170 H       
  27 H27           -0.5405    -2.4498    -0.8962 H       
  28 H28           -0.5242    -2.4594     0.8837 H       
  29 H29           -3.0336    -2.3387     0.8591 H       
  30 H30           -1.8140    -4.6470    -0.7224 H       
  31 H31           -1.8591    -4.5141     1.0520 H       
  32 H32           -4.2819    -4.4383     0.8757 H       
  33 H33           -3.1140    -6.7060    -0.6012 H       
  34 H34           -3.1591    -6.5731     1.1732 H       
  35 H35           -5.6351    -6.4593     1.1017 H       
  36 H36           -5.5900    -6.5923    -0.6727 H       
  37 H37            1.1567     3.1688     0.0080 H       
  38 H38            3.3426    -0.4935    -0.0337 H       
  39 H39            1.2314    -1.7588    -0.0188 H       
  40 H40           -2.7058    -2.7093    -2.0017 H       
  41 H41           -5.0776    -8.3587     2.5043 H       
  42 H42           -4.9662    -8.6771    -1.7471 H       
  43 H43           -4.8696   -11.1301    -1.5632 H       
@<TRIPOS>BOND
   1    1    2 ar
   2    1   10 ar
   3    1   26 1
   4    2    3 1
   5    2   13 ar
   6    3    4 1
   7    4    5 1
   8    4   27 1
   9    4   28 1
  10    5    6 1
  11    5   14 1
  12    5   29 1
  13    6    7 1
  14    6   30 1
  15    6   31 1
  16    7    8 1
  17    7   32 1
  18    8    9 1
  19    8   33 1
  20    8   34 1
  21    9   17 1
  22    9   35 1
  23    9   36 1
  24   10   11 ar
  25   10   37 1
  26   11   12 ar
  27   11   23 1
  28   12   13 ar
  29   12   38 1
  30   13   39 1
  31   14   40 1
  32   15   17 ar
  33   15   16 ar
  34   15   41 1
  35   16   22 1
  36   16   20 ar
  37   17   18 ar
  38   18   19 ar
  39   18   42 1
  40   19   20 ar
  41   19   43 1
  42   20   21 1
  43   23   24 2
  44   23   25 2

#	End of record

