#	Name: ASD01870256
#	Creating user name:	WinNT
#	Creation time:	15. 06. 2019 19:38

#	Modifying user name:	WinNT
#	Modification time:	15. 06. 2019 19:38

#	Program:	/corina/corina34_cracker 3.40 0067  02.08.2006

@<TRIPOS>MOLECULE
ASD01870256
  68   73    0    0    0
SMALL
NO_CHARGES


@<TRIPOS>ATOM
   1 C1            -0.0393     1.5852     0.9384 C.ar    
   2 C2            -0.1539     0.2239     0.6678 C.ar    
   3 C3             0.9193    -0.5018     0.2435 C.ar    
   4 C4             2.1589     0.1297     0.0758 C.ar    
   5 C5             2.2757     1.5189     0.3515 C.ar    
   6 C6             1.1501     2.2332     0.7868 C.ar    
   7 C7             3.3003    -0.5688    -0.3598 C.ar    
   8 N8             4.4422     0.0508    -0.5060 N.ar    
   9 C9             4.5970     1.3585    -0.2576 C.ar    
  10 C10            3.5267     2.1234     0.1745 C.ar    
  11 C11            5.7810     2.2395    -0.3575 C.2     
  12 N12            5.4605     3.4955    -0.0032 N.am    
  13 C13            4.0380     3.5290     0.3558 C.3     
  14 C14            6.3768     4.6384     0.0214 C.3     
  15 C15            7.2740     4.5995    -1.2173 C.3     
  16 C16            6.4079     4.6673    -2.4767 C.3     
  17 C17            5.6015     5.9676    -2.4716 C.3     
  18 C18            4.7043     6.0064    -1.2329 C.3     
  19 C19            5.5704     5.9386     0.0265 C.3     
  20 C20            3.2057    -2.0426    -0.6595 C.3     
  21 C21            2.8404    -2.2381    -2.1085 C.ar    
  22 C22            3.8266    -2.3441    -3.0700 C.ar    
  23 N23            3.5153    -2.5154    -4.3403 N.ar    
  24 C24            2.2610    -2.5924    -4.7426 C.ar    
  25 C25            1.2201    -2.4945    -3.8358 C.ar    
  26 C26            1.5099    -2.3196    -2.4921 C.ar    
  27 O27            6.8868     1.8786    -0.7099 O.2     
  28 O28            8.0272     3.3851    -1.2220 O.3     
  29 C29            3.8732     3.9650     1.8131 C.3     
  30 Cl30           1.9126    -2.8183    -6.4282 Cl      
  31 O31            4.4404     2.9750     2.6735 O.3     
  32 C32            4.3388     3.2867     4.0644 C.3     
  33 C33            4.9654     2.1809     4.8741 C.ar    
  34 C34            6.3085     2.2361     5.1966 C.ar    
  35 C35            6.8832     1.2217     5.9392 C.ar    
  36 C36            6.1148     0.1523     6.3598 C.ar    
  37 C37            4.7715     0.0976     6.0381 C.ar    
  38 C38            4.1958     1.1141     5.2991 C.ar    
  39 H39           -0.9070     2.1366     1.2693 H       
  40 H40           -1.1084    -0.2648     0.7964 H       
  41 H41            0.8149    -1.5570     0.0383 H       
  42 H42            1.2250     3.2894     0.9995 H       
  43 H43            3.5010     4.2112    -0.3032 H       
  44 H44            6.9939     4.5900     0.9187 H       
  45 H45            7.9558     5.4498    -1.1989 H       
  46 H46            7.0471     4.6396    -3.3592 H       
  47 H47            5.7261     3.8171    -2.4950 H       
  48 H48            6.2832     6.8179    -2.4533 H       
  49 H49            4.9844     6.0159    -3.3689 H       
  50 H50            4.1298     6.9327    -1.2293 H       
  51 H51            4.0225     5.1561    -1.2513 H       
  52 H52            4.9312     5.9663     0.9090 H       
  53 H53            6.2522     6.7889     0.0448 H       
  54 H54            4.1669    -2.5164    -0.4601 H       
  55 H55            2.4404    -2.4935    -0.0278 H       
  56 H56            4.8648    -2.2858    -2.7782 H       
  57 H57            0.1953    -2.5575    -4.1707 H       
  58 H58            0.7182    -2.2403    -1.7618 H       
  59 H59            8.6193     3.2925    -1.9809 H       
  60 H60            4.3830     4.9159     1.9677 H       
  61 H61            2.8134     4.0797     2.0404 H       
  62 H62            4.8582     4.2236     4.2657 H       
  63 H63            3.2886     3.3874     4.3384 H       
  64 H64            6.9088     3.0716     4.8680 H       
  65 H65            7.9327     1.2645     6.1906 H       
  66 H66            6.5640    -0.6405     6.9394 H       
  67 H67            4.1713    -0.7381     6.3664 H       
  68 H68            3.1455     1.0732     5.0510 H       
@<TRIPOS>BOND
   1    1    2 ar
   2    1    6 ar
   3    1   39 1
   4    2    3 ar
   5    2   40 1
   6    3    4 ar
   7    3   41 1
   8    4    5 ar
   9    4    7 ar
  10    5    6 ar
  11    5   10 ar
  12    6   42 1
  13    7    8 ar
  14    7   20 1
  15    8    9 ar
  16    9   10 ar
  17    9   11 1
  18   10   13 1
  19   11   12 am
  20   11   27 2
  21   12   13 1
  22   12   14 1
  23   13   29 1
  24   13   43 1
  25   14   15 1
  26   14   19 1
  27   14   44 1
  28   15   16 1
  29   15   28 1
  30   15   45 1
  31   16   17 1
  32   16   46 1
  33   16   47 1
  34   17   18 1
  35   17   48 1
  36   17   49 1
  37   18   19 1
  38   18   50 1
  39   18   51 1
  40   19   52 1
  41   19   53 1
  42   20   21 1
  43   20   54 1
  44   20   55 1
  45   21   22 ar
  46   21   26 ar
  47   22   23 ar
  48   22   56 1
  49   23   24 ar
  50   24   25 ar
  51   24   30 1
  52   25   26 ar
  53   25   57 1
  54   26   58 1
  55   28   59 1
  56   29   31 1
  57   29   60 1
  58   29   61 1
  59   31   32 1
  60   32   33 1
  61   32   62 1
  62   32   63 1
  63   33   34 ar
  64   33   38 ar
  65   34   35 ar
  66   34   64 1
  67   35   36 ar
  68   35   65 1
  69   36   37 ar
  70   36   66 1
  71   37   38 ar
  72   37   67 1
  73   38   68 1

#	End of record

