#	Name: ASD03091259
#	Creating user name:	WinNT
#	Creation time:	15. 06. 2019 20:30

#	Modifying user name:	WinNT
#	Modification time:	15. 06. 2019 20:30

#	Program:	/corina/corina34_cracker 3.40 0067  02.08.2006

@<TRIPOS>MOLECULE
ASD03091259
  58   62    0    0    0
SMALL
NO_CHARGES


@<TRIPOS>ATOM
   1 N1            -0.0393     1.3281     0.2322 N.2     
   2 C2            -0.0777     0.0309     0.0684 C.2     
   3 N3             1.0429    -0.7308    -0.1273 N.am    
   4 C4             2.2664    -0.1530    -0.1598 C.2     
   5 C5             2.3335     1.3047     0.0216 C.ar    
   6 C6             3.5454     1.9914     0.0036 C.ar    
   7 C7             3.5501     3.3649     0.1792 C.ar    
   8 C8             2.3540     4.0561     0.3729 C.ar    
   9 C9             1.1588     3.3969     0.3930 C.ar    
  10 C10            1.1242     2.0099     0.2182 C.ar    
  11 O11            3.2732    -0.8150    -0.3324 O.2     
  12 C12            0.9171    -2.1799    -0.3020 C.3     
  13 C13            0.6361    -2.4937    -1.7729 C.3     
  14 O14            1.7633    -2.1139    -2.5647 O.3     
  15 C15            1.6034    -2.3662    -3.9622 C.3     
  16 C16           -1.3914    -0.6437     0.0964 C.ar    
  17 C17           -1.6572    -1.6250     1.0567 C.ar    
  18 C18           -2.8893    -2.2514     1.0758 C.ar    
  19 C19           -3.8561    -1.9093     0.1481 C.ar    
  20 C20           -3.5984    -0.9390    -0.8044 C.ar    
  21 C21           -2.3759    -0.3008    -0.8320 C.ar    
  22 F22           -0.7126    -1.9601     1.9626 F       
  23 N23            7.4268     4.8655    -0.8465 N.3     
  24 C24            7.2345     3.8441     0.1943 C.3     
  25 C25            5.8961     3.1437     0.0188 C.3     
  26 N26            4.7608     4.0629     0.1627 N.3     
  27 C27            4.7726     5.0718    -0.9058 C.3     
  28 C28            5.4834     6.3328    -0.4375 C.3     
  29 C29            6.9883     6.1777    -0.3499 C.3     
  30 C30            6.8968     4.5529    -2.1563 C.3     
  31 C31            5.3795     4.4643    -2.1573 C.3     
  32 H32            4.4723     1.4576    -0.1456 H       
  33 H33            2.3738     5.1273     0.5091 H       
  34 H34            0.2411     3.9458     0.5443 H       
  35 H35            1.8449    -2.6644     0.0021 H       
  36 H36            0.0958    -2.5499     0.3118 H       
  37 H37            0.4545    -3.5623    -1.8881 H       
  38 H38           -0.2424    -1.9384    -2.1015 H       
  39 H39            2.5013    -2.0506    -4.4934 H       
  40 H40            1.4420    -3.4321    -4.1229 H       
  41 H41            0.7450    -1.8082    -4.3362 H       
  42 H42           -3.0972    -3.0096     1.8163 H       
  43 H43           -4.8169    -2.4022     0.1668 H       
  44 H44           -4.3585    -0.6776    -1.5258 H       
  45 H45           -2.1790     0.4593    -1.5735 H       
  46 H46            8.0361     3.1085     0.1279 H       
  47 H47            7.2650     4.3200     1.1744 H       
  48 H48            5.8612     2.6922    -0.9726 H       
  49 H49            5.8093     2.3557     0.7669 H       
  50 H50            3.7392     5.3313    -1.1358 H       
  51 H51            5.2552     7.1411    -1.1323 H       
  52 H52            5.1021     6.6037     0.5470 H       
  53 H53            7.2972     6.2862     0.6898 H       
  54 H54            7.4617     6.9594    -0.9439 H       
  55 H55            7.2060     5.3284    -2.8571 H       
  56 H56            7.3068     3.5980    -2.4849 H       
  57 H57            5.0858     3.4166    -2.2208 H       
  58 H58            4.9944     4.9920    -3.0299 H       
@<TRIPOS>BOND
   1    1    2 2
   2    1   10 1
   3    2    3 1
   4    2   16 1
   5    3    4 am
   6    3   12 1
   7    4    5 1
   8    4   11 2
   9    5    6 ar
  10    5   10 ar
  11    6    7 ar
  12    6   32 1
  13    7    8 ar
  14    7   26 1
  15    8    9 ar
  16    8   33 1
  17    9   10 ar
  18    9   34 1
  19   12   13 1
  20   12   35 1
  21   12   36 1
  22   13   14 1
  23   13   37 1
  24   13   38 1
  25   14   15 1
  26   15   39 1
  27   15   40 1
  28   15   41 1
  29   16   17 ar
  30   16   21 ar
  31   17   18 ar
  32   17   22 1
  33   18   19 ar
  34   18   42 1
  35   19   20 ar
  36   19   43 1
  37   20   21 ar
  38   20   44 1
  39   21   45 1
  40   23   24 1
  41   23   29 1
  42   23   30 1
  43   24   25 1
  44   24   46 1
  45   24   47 1
  46   25   26 1
  47   25   48 1
  48   25   49 1
  49   26   27 1
  50   27   28 1
  51   27   31 1
  52   27   50 1
  53   28   29 1
  54   28   51 1
  55   28   52 1
  56   29   53 1
  57   29   54 1
  58   30   31 1
  59   30   55 1
  60   30   56 1
  61   31   57 1
  62   31   58 1

#	End of record

