#	Name: ASD09740706
#	Creating user name:	WinNT
#	Creation time:	15. 06. 2019 21:23

#	Modifying user name:	WinNT
#	Modification time:	15. 06. 2019 21:23

#	Program:	/corina/corina34_cracker 3.40 0067  02.08.2006

@<TRIPOS>MOLECULE
ASD09740706
  19   20    0    0    0
SMALL
NO_CHARGES


@<TRIPOS>ATOM
   1 C1             0.0021    -0.0041     0.0020 C.1     
   2 C2            -0.0173     1.4278     0.0099 C.ar    
   3 C3             1.1839     2.1462     0.0023 C.ar    
   4 C4             1.1643     3.5294     0.0104 C.ar    
   5 C5            -0.0372     4.2082     0.0256 C.ar    
   6 C6            -1.2426     3.5029     0.0333 C.ar    
   7 C7            -1.2329     2.1106     0.0194 C.ar    
   8 N8             0.0175    -1.1399    -0.0042 N.1     
   9 S9            -4.1345     3.5101     0.0627 S.3     
  10 C10           -4.8459     5.0645     0.0787 C.2     
  11 N11           -3.9324     5.9768     0.0746 N.2     
  12 C12           -2.6803     5.5758     0.0596 C.2     
  13 C13           -2.5282     4.2342     0.0505 C.2     
  14 F14            2.3637     1.4881    -0.0126 F       
  15 H15            2.0932     4.0804     0.0052 H       
  16 H16           -0.0453     5.2882     0.0318 H       
  17 H17           -2.1631     1.5618     0.0204 H       
  18 H18           -5.9087     5.2561     0.0900 H       
  19 H19           -1.8452     6.2607     0.0543 H       
@<TRIPOS>BOND
   1    1    2 1
   2    1    8 3
   3    2    3 ar
   4    2    7 ar
   5    3    4 ar
   6    3   14 1
   7    4    5 ar
   8    4   15 1
   9    5    6 ar
  10    5   16 1
  11    6    7 ar
  12    6   13 1
  13    7   17 1
  14    9   10 1
  15    9   13 1
  16   10   11 2
  17   10   18 1
  18   11   12 1
  19   12   13 2
  20   12   19 1

#	End of record

