#	Name: ASD00990045
#	Creating user name:	WinNT
#	Creation time:	15. 06. 2019 18:54

#	Modifying user name:	WinNT
#	Modification time:	15. 06. 2019 18:54

#	Program:	/corina/corina34_cracker 3.40 0067  02.08.2006

@<TRIPOS>MOLECULE
ASD00990045
  38   39    0    0    0
SMALL
NO_CHARGES


@<TRIPOS>ATOM
   1 C1            -0.0170     1.4003     0.0097 C.ar    
   2 C2             0.0021    -0.0041     0.0020 C.ar    
   3 C3            -1.1907    -0.7144     0.0100 C.ar    
   4 C4            -2.3929    -0.0374     0.0255 C.ar    
   5 C5            -2.4172     1.3542     0.0327 C.ar    
   6 C6            -1.2423     2.0729     0.0302 C.ar    
   7 N7             1.2767     1.8141    -0.0004 N.2     
   8 C8             2.0666     0.7805    -0.0135 C.2     
   9 N9             1.3351    -0.3669    -0.0127 N.pl3   
  10 C10            3.5722     0.8446    -0.0275 C.3     
  11 N11            4.0418     0.9936    -1.4072 N.am    
  12 C12            4.2240     2.3302    -1.9786 C.3     
  13 F13           -3.6013     2.0044     0.0470 F       
  14 F14           -3.5532    -0.7294     0.0333 F       
  15 O15            4.7378     0.0379    -3.4187 O.3     
  16 C16            5.0027    -1.1820    -4.1602 C.3     
  17 C17            3.7212    -2.0130    -4.2497 C.3     
  18 C18            5.4806    -0.8283    -5.5700 C.3     
  19 C19            6.0855    -1.9902    -3.4424 C.3     
  20 C20            4.3062    -0.0990    -2.1508 C.2     
  21 O21            4.1551    -1.2076    -1.6768 O.2     
  22 H22           -1.1777    -1.7943     0.0037 H       
  23 H23           -1.2676     3.1526     0.0361 H       
  24 H24            1.6847    -1.2717    -0.0206 H       
  25 H25            3.9051     1.6976     0.5637 H       
  26 H26            3.9789    -0.0730     0.3976 H       
  27 H27            5.2417     2.6710    -1.7883 H       
  28 H28            4.0484     2.2927    -3.0537 H       
  29 H29            3.5174     3.0212    -1.5190 H       
  30 H30            2.9497    -1.4372    -4.7610 H       
  31 H31            3.9200    -2.9288    -4.8063 H       
  32 H32            3.3807    -2.2649    -3.2453 H       
  33 H33            6.3936    -0.2363    -5.5063 H       
  34 H34            5.6795    -1.7441    -6.1267 H       
  35 H35            4.7092    -0.2525    -6.0814 H       
  36 H36            5.7451    -2.2421    -2.4381 H       
  37 H37            6.2844    -2.9059    -3.9991 H       
  38 H38            6.9985    -1.3982    -3.3787 H       
@<TRIPOS>BOND
   1    1    2 ar
   2    1    7 1
   3    1    6 ar
   4    2    3 ar
   5    2    9 1
   6    3    4 ar
   7    3   22 1
   8    4    5 ar
   9    4   14 1
  10    5    6 ar
  11    5   13 1
  12    6   23 1
  13    7    8 2
  14    8    9 1
  15    8   10 1
  16    9   24 1
  17   10   11 1
  18   10   25 1
  19   10   26 1
  20   11   12 1
  21   11   20 am
  22   12   27 1
  23   12   28 1
  24   12   29 1
  25   15   16 1
  26   15   20 1
  27   16   17 1
  28   16   18 1
  29   16   19 1
  30   17   30 1
  31   17   31 1
  32   17   32 1
  33   18   33 1
  34   18   34 1
  35   18   35 1
  36   19   36 1
  37   19   37 1
  38   19   38 1
  39   20   21 2

#	End of record

