#	Name: ASD01880641
#	Creating user name:	WinNT
#	Creation time:	15. 06. 2019 19:41

#	Modifying user name:	WinNT
#	Modification time:	15. 06. 2019 19:41

#	Program:	/corina/corina34_cracker 3.40 0067  02.08.2006

@<TRIPOS>MOLECULE
ASD01880641
  57   60    0    0    0
SMALL
NO_CHARGES


@<TRIPOS>ATOM
   1 N1            -0.0193     1.3064     0.0293 N.ar    
   2 C2             0.0058    -0.0106     0.0033 C.ar    
   3 N3             1.1384    -0.6837    -0.0310 N.ar    
   4 C4             2.3058    -0.0560    -0.0408 C.ar    
   5 C5             2.3286     1.3248    -0.0145 C.ar    
   6 C6             1.1110     2.0071     0.0216 C.ar    
   7 C7             3.6350     2.0760    -0.0246 C.3     
   8 O8             4.0922     2.2185    -1.3709 O.3     
   9 C9             5.2643     2.8767    -1.5572 C.ar    
  10 C10            5.7670     3.0508    -2.8429 C.ar    
  11 C11            6.9525     3.7172    -3.0300 C.ar    
  12 C12            7.6604     4.2234    -1.9348 C.ar    
  13 C13            7.1508     4.0461    -0.6455 C.ar    
  14 C14            5.9586     3.3811    -0.4640 C.ar    
  15 C15            7.7564     4.0702    -4.2565 C.3     
  16 N16            8.9389     4.7946    -3.7768 N.am    
  17 C17            8.8794     4.8807    -2.4369 C.2     
  18 O18            9.7131     5.4242    -1.7384 O.2     
  19 C19            3.5926    -0.8394    -0.0796 C.3     
  20 N20            1.0807     3.3919     0.0484 N.3     
  21 C21            0.4941     3.9054    -1.1199 C.3     
  22 C22            0.6290     5.4417    -1.1913 C.3     
  23 C23           -0.3555     6.0689    -0.2378 C.3     
  24 O24            0.2023     6.2988     1.0722 O.3     
  25 C25            1.0371     5.2509     1.5982 C.3     
  26 C26            0.4761     3.8836     1.3019 C.3     
  27 C27           10.7801     7.3330    -5.9058 C.3     
  28 C28            9.6630     6.7689    -5.0255 C.3     
  29 C29           10.0085     5.3347    -4.6197 C.3     
  30 H30           -0.9276    -0.5538     0.0108 H       
  31 H31            3.4903     3.0623     0.4164 H       
  32 H32            4.3758     1.5243     0.5542 H       
  33 H33            5.2253     2.6620    -3.6926 H       
  34 H34            7.6897     4.4326     0.2069 H       
  35 H35            5.5651     3.2447     0.5325 H       
  36 H36            8.0594     3.1633    -4.7798 H       
  37 H37            7.1698     4.7072    -4.9185 H       
  38 H38            3.8837    -1.0087    -1.1163 H       
  39 H39            4.3753    -0.2779     0.4305 H       
  40 H40            3.4494    -1.7981     0.4189 H       
  41 H41            0.9835     3.4639    -1.9881 H       
  42 H42           -0.5629     3.6394    -1.1345 H       
  43 H43            1.6419     5.7319    -0.9122 H       
  44 H44            0.4188     5.7792    -2.2062 H       
  45 H45           -0.6866     7.0217    -0.6509 H       
  46 H46           -1.2193     5.4110    -0.1414 H       
  47 H47            2.0294     5.3311     1.1542 H       
  48 H48            1.1222     5.3732     2.6780 H       
  49 H49           -0.6058     3.9488     1.1859 H       
  50 H50            0.7196     3.2030     2.1178 H       
  51 H51           10.5340     8.3547    -6.1949 H       
  52 H52           11.7178     7.3285    -5.3502 H       
  53 H53           10.8843     6.7176    -6.7994 H       
  54 H54            9.5588     7.3843    -4.1319 H       
  55 H55            8.7253     6.7734    -5.5812 H       
  56 H56           10.9462     5.3303    -4.0641 H       
  57 H57           10.1127     4.7194    -5.5133 H       
@<TRIPOS>BOND
   1    1    2 ar
   2    1    6 ar
   3    2    3 ar
   4    2   30 1
   5    3    4 ar
   6    4    5 ar
   7    4   19 1
   8    5    6 ar
   9    5    7 1
  10    6   20 1
  11    7    8 1
  12    7   31 1
  13    7   32 1
  14    8    9 1
  15    9   10 ar
  16    9   14 ar
  17   10   11 ar
  18   10   33 1
  19   11   12 ar
  20   11   15 1
  21   12   13 ar
  22   12   17 1
  23   13   14 ar
  24   13   34 1
  25   14   35 1
  26   15   16 1
  27   15   36 1
  28   15   37 1
  29   16   17 am
  30   16   29 1
  31   17   18 2
  32   19   38 1
  33   19   39 1
  34   19   40 1
  35   20   21 1
  36   20   26 1
  37   21   22 1
  38   21   41 1
  39   21   42 1
  40   22   23 1
  41   22   43 1
  42   22   44 1
  43   23   24 1
  44   23   45 1
  45   23   46 1
  46   24   25 1
  47   25   26 1
  48   25   47 1
  49   25   48 1
  50   26   49 1
  51   26   50 1
  52   27   28 1
  53   27   51 1
  54   27   52 1
  55   27   53 1
  56   28   29 1
  57   28   54 1
  58   28   55 1
  59   29   56 1
  60   29   57 1

#	End of record

