#	Name: ASD01884182
#	Creating user name:	WinNT
#	Creation time:	15. 06. 2019 19:47

#	Modifying user name:	WinNT
#	Modification time:	15. 06. 2019 19:47

#	Program:	/corina/corina34_cracker 3.40 0067  02.08.2006

@<TRIPOS>MOLECULE
ASD01884182
  25   27    0    0    0
SMALL
NO_CHARGES


@<TRIPOS>ATOM
   1 Br1            0.0021    -0.0041     0.0020 Br      
   2 C2            -0.0236     1.8867     0.0124 C.ar    
   3 C3             1.1626     2.6014     0.0049 C.ar    
   4 C4             1.1567     3.9768     0.0119 C.ar    
   5 C5            -0.0519     4.6890     0.0272 C.ar    
   6 C6            -1.2362     3.9507     0.0346 C.ar    
   7 C7            -1.2267     2.5677     0.0218 C.ar    
   8 N8            -0.2320     6.0609     0.0355 N.am    
   9 C9            -1.4783     6.5433     0.0494 C.2     
  10 S10           -2.5513     5.1337     0.0524 S.3     
  11 C11            0.9199     6.9661     0.0298 C.3     
  12 C12            1.3082     7.2883    -1.4146 C.3     
  13 C13            2.4206     8.3154    -1.6348 C.3     
  14 O14           -1.8094     7.7146     0.0581 O.2     
  15 C15            2.6874     6.8313    -1.8941 C.3     
  16 F16            3.4969     6.1509    -0.9783 F       
  17 F17            2.8044     6.4191    -3.2259 F       
  18 H18            2.1040     2.0722    -0.0062 H       
  19 H19            2.0932     4.5146     0.0059 H       
  20 H20           -2.1578     2.0205     0.0275 H       
  21 H21            0.6603     7.8878     0.5505 H       
  22 H22            1.7600     6.4883     0.5339 H       
  23 H23            0.4918     7.2680    -2.1366 H       
  24 H24            2.3362     8.9706    -2.5018 H       
  25 H25            2.8758     8.7616    -0.7506 H       
@<TRIPOS>BOND
   1    1    2 1
   2    2    3 ar
   3    2    7 ar
   4    3    4 ar
   5    3   18 1
   6    4    5 ar
   7    4   19 1
   8    5    6 ar
   9    5    8 1
  10    6    7 ar
  11    6   10 1
  12    7   20 1
  13    8    9 am
  14    8   11 1
  15    9   10 1
  16    9   14 2
  17   11   12 1
  18   11   21 1
  19   11   22 1
  20   12   13 1
  21   12   15 1
  22   12   23 1
  23   13   15 1
  24   13   24 1
  25   13   25 1
  26   15   16 1
  27   15   17 1

#	End of record

