#	Name: ASD03730730
#	Creating user name:	WinNT
#	Creation time:	15. 06. 2019 20:44

#	Modifying user name:	WinNT
#	Modification time:	15. 06. 2019 20:44

#	Program:	/corina/corina34_cracker 3.40 0067  02.08.2006

@<TRIPOS>MOLECULE
ASD03730730
  48   52    0    0    0
SMALL
NO_CHARGES


@<TRIPOS>ATOM
   1 O1            -0.0174     1.4355     0.0099 O.3     
   2 C2             0.0021    -0.0041     0.0020 C.3     
   3 O3             1.2438    -0.3267    -0.6509 O.3     
   4 C4             2.0699     0.7301    -0.4085 C.ar    
   5 C5             1.2937     1.8172    -0.0005 C.ar    
   6 C6             4.1503     4.3139     0.4853 C.2     
   7 C7             5.5834     3.9154     0.2186 C.3     
   8 C8             5.5129     2.4543    -0.2249 C.3     
   9 C9             4.0626     2.0575    -0.1996 C.ar    
  10 C10            3.4482     0.8598    -0.5044 C.ar    
  11 C11            1.8982     3.0164     0.3084 C.ar    
  12 C12            3.2939     3.1502     0.2132 C.ar    
  13 N13            7.1277     1.4088    -1.4726 N.am    
  14 C14            6.1052     2.2748    -1.5994 C.2     
  15 C15            6.3422     1.5718     0.6684 C.ar    
  16 C16            6.3089     1.2940     2.0167 C.ar    
  17 C17            7.2285     0.4180     2.5657 C.ar    
  18 C18            8.1797    -0.1771     1.7571 C.ar    
  19 C19            8.2160     0.0975     0.4059 C.ar    
  20 C20            7.2931     0.9777    -0.1549 C.ar    
  21 O21            5.7317     2.8078    -2.6229 O.2     
  22 O22            3.7723     5.4042     0.8593 O.2     
  23 C23            7.9699     0.9696    -2.5880 C.3     
  24 C24            9.1640     1.9158    -2.7287 C.3     
  25 C25           10.0436     1.4572    -3.8936 C.3     
  26 C26           11.2376     2.4034    -4.0344 C.3     
  27 C27           12.1172     1.9447    -5.1992 C.3     
  28 H28           -0.0073    -0.3927     1.0203 H       
  29 H29           -0.8420    -0.3953    -0.5659 H       
  30 H30            6.0065     4.5318    -0.5745 H       
  31 H31            6.1773     4.0067     1.1280 H       
  32 H32            4.0449     0.0167    -0.8197 H       
  33 H33            1.2973     3.8563     0.6243 H       
  34 H34            5.5651     1.7603     2.6458 H       
  35 H35            7.2038     0.1998     3.6231 H       
  36 H36            8.8980    -0.8602     2.1859 H       
  37 H37            8.9621    -0.3707    -0.2190 H       
  38 H38            8.3284    -0.0418    -2.3963 H       
  39 H39            7.3874     0.9802    -3.5092 H       
  40 H40            8.8055     2.9272    -2.9204 H       
  41 H41            9.7465     1.9053    -1.8075 H       
  42 H42           10.4020     0.4458    -3.7019 H       
  43 H43            9.4610     1.4677    -4.8148 H       
  44 H44           10.8792     3.4147    -4.2260 H       
  45 H45           11.8201     2.3928    -3.1131 H       
  46 H46           12.9679     2.6188    -5.2995 H       
  47 H47           12.4757     0.9333    -5.0075 H       
  48 H48           11.5347     1.9553    -6.1204 H       
@<TRIPOS>BOND
   1    1    2 1
   2    1    5 1
   3    2    3 1
   4    2   28 1
   5    2   29 1
   6    3    4 1
   7    4    5 ar
   8    4   10 ar
   9    5   11 ar
  10    6    7 1
  11    6   12 1
  12    6   22 2
  13    7    8 1
  14    7   30 1
  15    7   31 1
  16    8    9 1
  17    8   14 1
  18    8   15 1
  19    9   10 ar
  20    9   12 ar
  21   10   32 1
  22   11   12 ar
  23   11   33 1
  24   13   14 am
  25   13   20 1
  26   13   23 1
  27   14   21 2
  28   15   16 ar
  29   15   20 ar
  30   16   17 ar
  31   16   34 1
  32   17   18 ar
  33   17   35 1
  34   18   19 ar
  35   18   36 1
  36   19   20 ar
  37   19   37 1
  38   23   24 1
  39   23   38 1
  40   23   39 1
  41   24   25 1
  42   24   40 1
  43   24   41 1
  44   25   26 1
  45   25   42 1
  46   25   43 1
  47   26   27 1
  48   26   44 1
  49   26   45 1
  50   27   46 1
  51   27   47 1
  52   27   48 1

#	End of record

