#	Name: ASD05842005
#	Creating user name:	WinNT
#	Creation time:	15. 06. 2019 21:03

#	Modifying user name:	WinNT
#	Modification time:	15. 06. 2019 21:03

#	Program:	/corina/corina34_cracker 3.40 0067  02.08.2006

@<TRIPOS>MOLECULE
ASD05842005
  83   87    0    0    0
SMALL
NO_CHARGES


@<TRIPOS>ATOM
   1 C1            -1.6808     1.9271    -0.4632 C.2     
   2 C2            -1.7500     0.4220    -0.4968 C.3     
   3 O3            -0.6038     2.4846    -0.4581 O.2     
   4 N4            -2.8158     2.6536    -0.4444 N.am    
   5 C5            -4.1147     1.9864    -0.5632 C.3     
   6 N6            -3.6412     4.4556     2.4199 N.3     
   7 C7            -4.5994     4.0797     1.3726 C.3     
   8 C8            -4.1419     4.6551     0.0304 C.3     
   9 C9            -2.7508     4.1105    -0.3053 C.3     
  10 C10           -1.7828     4.4739     0.8241 C.3     
  11 C11           -2.3087     3.9038     2.1433 C.3     
  12 C12           -2.2701     4.7188    -1.5976 C.ar    
  13 C13           -1.6910     3.9189    -2.5648 C.ar    
  14 C14           -1.2501     4.4769    -3.7501 C.ar    
  15 C15           -1.3886     5.8349    -3.9684 C.ar    
  16 C16           -1.9685     6.6347    -3.0016 C.ar    
  17 C17           -2.4134     6.0760    -1.8180 C.ar    
  18 C18           -4.1190     4.0385     3.7449 C.3     
  19 C19           -2.9983     4.2179     4.7710 C.3     
  20 C20           -3.4960     3.7835     6.1510 C.3     
  21 N21           -2.6813     6.1987     7.6242 N.am    
  22 C22           -1.7006     5.2233     7.1286 C.3     
  23 C23           -2.3372     3.8301     7.1490 C.3     
  24 C24           -2.8623     3.5342     8.5557 C.3     
  25 C25           -3.9346     4.5607     8.9282 C.3     
  26 C26           -3.3160     5.9622     8.9280 C.3     
  27 C27           -1.3047     2.7997     6.7704 C.ar    
  28 C28           -0.1007     2.7470     7.4477 C.ar    
  29 C29            0.8470     1.8012     7.1008 C.ar    
  30 C30            0.5889     0.9074     6.0750 C.ar    
  31 C31           -0.6162     0.9616     5.3985 C.ar    
  32 C32           -1.5645     1.9042     5.7500 C.ar    
  33 Cl33           1.7775    -0.2800     5.6381 Cl      
  34 Cl34           2.3593     1.7349     7.9506 Cl      
  35 C35           -2.9886     7.2925     6.8992 C.2     
  36 C36           -2.4029     7.4764     5.5542 C.ar    
  37 C37           -3.1966     7.9325     4.5005 C.ar    
  38 C38           -2.6438     8.1024     3.2480 C.ar    
  39 C39           -1.3059     7.8213     3.0350 C.ar    
  40 C40           -0.5136     7.3688     4.0752 C.ar    
  41 C41           -1.0526     7.2001     5.3339 C.ar    
  42 O42           -3.7472     8.1278     7.3511 O.2     
  43 H43           -1.6849     0.0326     0.5192 H       
  44 H44           -2.6938     0.1116    -0.9451 H       
  45 H45           -0.9213     0.0333    -1.0887 H       
  46 H46           -4.4304     1.6288     0.4169 H       
  47 H47           -4.8516     2.6916    -0.9474 H       
  48 H48           -4.0283     1.1423    -1.2474 H       
  49 H49           -4.6533     2.9933     1.3026 H       
  50 H50           -5.5836     4.4767     1.6214 H       
  51 H51           -4.8451     4.3628    -0.7495 H       
  52 H52           -4.1011     5.7424     0.0955 H       
  53 H53           -0.8005     4.0522     0.6113 H       
  54 H54           -1.7049     5.5584     0.9017 H       
  55 H55           -1.6292     4.1730     2.9519 H       
  56 H56           -2.3733     2.8182     2.0697 H       
  57 H57           -1.5828     2.8579    -2.3943 H       
  58 H58           -0.7970     3.8520    -4.5055 H       
  59 H59           -1.0434     6.2709    -4.8942 H       
  60 H60           -2.0765     7.6957    -3.1720 H       
  61 H61           -2.8698     6.7003    -1.0641 H       
  62 H62           -4.9750     4.6495     4.0313 H       
  63 H63           -4.4160     2.9903     3.7107 H       
  64 H64           -2.1423     3.6069     4.4845 H       
  65 H65           -2.7013     5.2661     4.8052 H       
  66 H66           -4.2868     4.4574     6.4807 H       
  67 H67           -3.8853     2.7671     6.0935 H       
  68 H68           -1.4141     5.4793     6.1085 H       
  69 H69           -0.8199     5.2321     7.7708 H       
  70 H70           -3.2939     2.5335     8.5791 H       
  71 H71           -2.0407     3.5919     9.2696 H       
  72 H72           -4.7450     4.5206     8.2005 H       
  73 H73           -4.3247     4.3354     9.9207 H       
  74 H74           -2.5671     6.0312     9.7169 H       
  75 H75           -4.0954     6.7056     9.0952 H       
  76 H76            0.1001     3.4446     8.2473 H       
  77 H77           -0.8181     0.2648     4.5984 H       
  78 H78           -2.5070     1.9436     5.2243 H       
  79 H79           -4.2412     8.1516     4.6653 H       
  80 H80           -3.2568     8.4553     2.4318 H       
  81 H81           -0.8782     7.9553     2.0524 H       
  82 H82            0.5300     7.1512     3.9024 H       
  83 H83           -0.4321     6.8511     6.1460 H       
@<TRIPOS>BOND
   1    1    2 1
   2    1    3 2
   3    1    4 am
   4    2   43 1
   5    2   44 1
   6    2   45 1
   7    4    5 1
   8    4    9 1
   9    5   46 1
  10    5   47 1
  11    5   48 1
  12    6    7 1
  13    6   11 1
  14    6   18 1
  15    7    8 1
  16    7   49 1
  17    7   50 1
  18    8    9 1
  19    8   51 1
  20    8   52 1
  21    9   10 1
  22    9   12 1
  23   10   11 1
  24   10   53 1
  25   10   54 1
  26   11   55 1
  27   11   56 1
  28   12   13 ar
  29   12   17 ar
  30   13   14 ar
  31   13   57 1
  32   14   15 ar
  33   14   58 1
  34   15   16 ar
  35   15   59 1
  36   16   17 ar
  37   16   60 1
  38   17   61 1
  39   18   19 1
  40   18   62 1
  41   18   63 1
  42   19   20 1
  43   19   64 1
  44   19   65 1
  45   20   23 1
  46   20   66 1
  47   20   67 1
  48   21   22 1
  49   21   26 1
  50   21   35 am
  51   22   23 1
  52   22   68 1
  53   22   69 1
  54   23   24 1
  55   23   27 1
  56   24   25 1
  57   24   70 1
  58   24   71 1
  59   25   26 1
  60   25   72 1
  61   25   73 1
  62   26   74 1
  63   26   75 1
  64   27   28 ar
  65   27   32 ar
  66   28   29 ar
  67   28   76 1
  68   29   30 ar
  69   29   34 1
  70   30   31 ar
  71   30   33 1
  72   31   32 ar
  73   31   77 1
  74   32   78 1
  75   35   36 1
  76   35   42 2
  77   36   37 ar
  78   36   41 ar
  79   37   38 ar
  80   37   79 1
  81   38   39 ar
  82   38   80 1
  83   39   40 ar
  84   39   81 1
  85   40   41 ar
  86   40   82 1
  87   41   83 1

#	End of record

