#	Name: ASD04910225
#	Creating user name:	WinNT
#	Creation time:	15. 06. 2019 20:55

#	Modifying user name:	WinNT
#	Modification time:	15. 06. 2019 20:55

#	Program:	/corina/corina34_cracker 3.40 0067  02.08.2006

@<TRIPOS>MOLECULE
ASD04910225
  30   31    0    0    0
SMALL
NO_CHARGES


@<TRIPOS>ATOM
   1 C1             0.1768     1.4586     0.1142 C.2     
   2 C2             0.0962    -0.0072     0.0524 C.ar    
   3 C3            -1.1489    -0.6381    -0.0567 C.ar    
   4 C4            -1.2193    -2.0113    -0.1148 C.ar    
   5 C5            -0.0557    -2.7724    -0.0647 C.ar    
   6 C6             1.1838    -2.1500     0.0437 C.ar    
   7 C7             1.2647    -0.7772     0.0966 C.ar    
   8 O8             1.2563     2.0032     0.2088 O.2     
   9 N9            -0.1324    -4.1665    -0.1231 N.pl3   
  10 N10           -0.8825    -4.9883     0.7282 N.2     
  11 C11           -0.7014    -6.2312     0.3621 C.2     
  12 C12            0.1691    -6.2459    -0.7338 C.2     
  13 C13            0.5026    -4.9663    -1.0191 C.2     
  14 C14            0.6468    -7.4713    -1.4696 C.3     
  15 F15            0.0839    -8.6129    -0.8890 F       
  16 F16            0.2585    -7.3906    -2.8112 F       
  17 F17            2.0416    -7.5479    -1.3916 F       
  18 C18            2.4404    -2.9803     0.0975 C.3     
  19 C19           -2.5588    -2.6916    -0.2322 C.3     
  20 H20           -0.7251     2.0513     0.0710 H       
  21 H21           -2.0527    -0.0481    -0.0949 H       
  22 H22            2.2277    -0.2948     0.1763 H       
  23 H23           -1.1475    -7.0982     0.8266 H       
  24 H24            1.1569    -4.6398    -1.8139 H       
  25 H25            2.7645    -3.2148    -0.9165 H       
  26 H26            3.2237    -2.4211     0.6092 H       
  27 H27            2.2417    -3.9054     0.6385 H       
  28 H28           -2.8339    -2.7732    -1.2838 H       
  29 H29           -2.5001    -3.6878     0.2063 H       
  30 H30           -3.3113    -2.1060     0.2958 H       
@<TRIPOS>BOND
   1    1    2 1
   2    1    8 2
   3    1   20 1
   4    2    3 ar
   5    2    7 ar
   6    3    4 ar
   7    3   21 1
   8    4    5 ar
   9    4   19 1
  10    5    6 ar
  11    5    9 1
  12    6    7 ar
  13    6   18 1
  14    7   22 1
  15    9   10 1
  16    9   13 1
  17   10   11 2
  18   11   12 1
  19   11   23 1
  20   12   13 2
  21   12   14 1
  22   13   24 1
  23   14   15 1
  24   14   16 1
  25   14   17 1
  26   18   25 1
  27   18   26 1
  28   18   27 1
  29   19   28 1
  30   19   29 1
  31   19   30 1

#	End of record

