#	Name: ASD03731794
#	Creating user name:	WinNT
#	Creation time:	15. 06. 2019 20:46

#	Modifying user name:	WinNT
#	Modification time:	15. 06. 2019 20:46

#	Program:	/corina/corina34_cracker 3.40 0067  02.08.2006

@<TRIPOS>MOLECULE
ASD03731794
  37   38    0    0    0
SMALL
NO_CHARGES


@<TRIPOS>ATOM
   1 C1             0.3755     1.0935     1.9785 C.2     
   2 C2             0.2919    -0.2828     1.4518 C.ar    
   3 C3             1.3747    -0.8360     0.7625 C.ar    
   4 C4             1.2927    -2.1209     0.2724 C.ar    
   5 C5             0.1336    -2.8669     0.4627 C.ar    
   6 C6            -0.9447    -2.3193     1.1472 C.ar    
   7 C7            -0.8675    -1.0377     1.6459 C.ar    
   8 O8             1.3871     1.7474     1.8130 O.2     
   9 N9            -0.6716     1.6273     2.6381 N.am    
  10 S10           -0.5779     3.1714     3.2291 S.o2    
  11 O11           -1.8289     3.3776     3.8707 O.2     
  12 O12            0.6361     3.1910     3.9673 O.2     
  13 C13           -0.4411     4.2142     1.7511 C.3     
  14 O14            0.0558    -4.1322    -0.0217 O.3     
  15 C15           -1.1307    -4.7866     0.0898 C.ar    
  16 C16           -2.0838    -4.6704    -0.9116 C.ar    
  17 C17           -3.2889    -5.3355    -0.7985 C.ar    
  18 C18           -3.5465    -6.1193     0.3166 C.ar    
  19 C19           -2.5939    -6.2352     1.3181 C.ar    
  20 C20           -1.3862    -5.5751     1.2022 C.ar    
  21 O21           -4.7332    -6.7738     0.4281 O.3     
  22 C22           -4.9309    -7.5630     1.6029 C.3     
  23 Cl23           2.6364    -2.8098    -0.5840 Cl      
  24 H24            2.2742    -0.2570     0.6140 H       
  25 H25           -1.8428    -2.9013     1.2927 H       
  26 H26           -1.7044    -0.6149     2.1819 H       
  27 H27           -1.4802     1.1070     2.7666 H       
  28 H28           -1.3205     4.0715     1.1231 H       
  29 H29           -0.3736     5.2604     2.0496 H       
  30 H30            0.4531     3.9373     1.1926 H       
  31 H31           -1.8835    -4.0595    -1.7795 H       
  32 H32           -4.0309    -5.2451    -1.5780 H       
  33 H33           -2.7948    -6.8449     2.1866 H       
  34 H34           -0.6426    -5.6691     1.9798 H       
  35 H35           -4.8641    -6.9254     2.4844 H       
  36 H36           -5.9153    -8.0296     1.5657 H       
  37 H37           -4.1642    -8.3360     1.6546 H       
@<TRIPOS>BOND
   1    1    2 1
   2    1    8 2
   3    1    9 am
   4    2    3 ar
   5    2    7 ar
   6    3    4 ar
   7    3   24 1
   8    4    5 ar
   9    4   23 1
  10    5    6 ar
  11    5   14 1
  12    6    7 ar
  13    6   25 1
  14    7   26 1
  15    9   10 am
  16    9   27 1
  17   10   11 2
  18   10   12 2
  19   10   13 1
  20   13   28 1
  21   13   29 1
  22   13   30 1
  23   14   15 1
  24   15   16 ar
  25   15   20 ar
  26   16   17 ar
  27   16   31 1
  28   17   18 ar
  29   17   32 1
  30   18   19 ar
  31   18   21 1
  32   19   20 ar
  33   19   33 1
  34   20   34 1
  35   21   22 1
  36   22   35 1
  37   22   36 1
  38   22   37 1

#	End of record

