#	Name: ASD03240338
#	Creating user name:	WinNT
#	Creation time:	15. 06. 2019 20:34

#	Modifying user name:	WinNT
#	Modification time:	15. 06. 2019 20:34

#	Program:	/corina/corina34_cracker 3.40 0067  02.08.2006

@<TRIPOS>MOLECULE
ASD03240338
  39   42    0    0    0
SMALL
NO_CHARGES


@<TRIPOS>ATOM
   1 O1            -0.0175     1.4396     0.0100 O.3     
   2 O2             1.6946    -1.6365    -0.7020 O.3     
   3 O3             3.1861     0.2837     0.2238 O.3     
   4 O4             0.7841     4.2241    -0.1188 O.3     
   5 N5            -1.2718    -0.5346    -0.4899 N.pl3   
   6 N6            -1.4267    -2.8837     0.4726 N.ar    
   7 N7            -4.9868    -2.8108    -1.5783 N.pl3   
   8 N8            -5.2751    -1.6266    -2.2713 N.2     
   9 N9            -3.4120    -3.9875    -0.1599 N.ar    
  10 N10           -4.8816     0.5615    -3.0259 N.pl3   
  11 C11            0.0021    -0.0041     0.0020 C.3     
  12 C12            1.1511    -0.3447    -0.9809 C.3     
  13 C13            2.1828     0.7673    -0.6715 C.3     
  14 C14            1.3514     1.8779    -0.0008 C.3     
  15 C15           -1.7533    -1.7794    -0.2065 C.ar    
  16 C16            1.4758     3.1761    -0.8009 C.3     
  17 C17           -2.1530     0.1620    -1.3006 C.2     
  18 C18           -2.9672    -1.8525    -0.8620 C.ar    
  19 C19           -3.2289    -0.6014    -1.5694 C.2     
  20 C20           -3.8236    -2.9386    -0.8622 C.ar    
  21 C21           -4.5047    -0.5683    -2.3074 C.2     
  22 C22           -2.2444    -3.9209     0.4730 C.ar    
  23 C23           -5.9378    -3.9243    -1.6201 C.3     
  24 H24            0.2185    -0.3905     0.9980 H       
  25 H25            0.8101    -0.2831    -2.0143 H       
  26 H26            2.6382     1.1321    -1.5922 H       
  27 H27            1.6983     2.0350     1.0206 H       
  28 H28            1.0395     3.0364    -1.7900 H       
  29 H29            2.5282     3.4411    -0.9021 H       
  30 H30           -1.9999     1.1679    -1.6628 H       
  31 H31            2.4169    -1.8948    -1.2907 H       
  32 H32            3.8590     0.9396     0.4518 H       
  33 H33            0.8211     5.0785    -0.5702 H       
  34 H34           -1.9379    -4.7905     1.0353 H       
  35 H35           -6.7963    -3.6462    -2.2315 H       
  36 H36           -5.4531    -4.8002    -2.0514 H       
  37 H37           -6.2717    -4.1551    -0.6085 H       
  38 H38           -5.7234     0.5714    -3.5077 H       
  39 H39           -4.3025     1.3395    -3.0453 H       
@<TRIPOS>BOND
   1    1   11 1
   2    1   14 1
   3    2   31 1
   4    2   12 1
   5    3   32 1
   6    3   13 1
   7    4   16 1
   8    4   33 1
   9    5   15 1
  10    5   17 1
  11    5   11 1
  12    6   15 ar
  13    6   22 ar
  14    7    8 1
  15    7   20 1
  16    7   23 1
  17    8   21 2
  18    9   20 ar
  19    9   22 ar
  20   10   21 1
  21   10   38 1
  22   10   39 1
  23   11   12 1
  24   11   24 1
  25   12   13 1
  26   12   25 1
  27   13   14 1
  28   13   26 1
  29   14   16 1
  30   14   27 1
  31   15   18 ar
  32   16   28 1
  33   16   29 1
  34   17   19 2
  35   17   30 1
  36   18   19 1
  37   18   20 ar
  38   19   21 1
  39   22   34 1
  40   23   35 1
  41   23   36 1
  42   23   37 1

#	End of record

