#	Name: ASD01230680
#	Creating user name:	WinNT
#	Creation time:	15. 06. 2019 19:14

#	Modifying user name:	WinNT
#	Modification time:	15. 06. 2019 19:14

#	Program:	/corina/corina34_cracker 3.40 0067  02.08.2006

@<TRIPOS>MOLECULE
ASD01230680
  49   52    0    0    0
SMALL
NO_CHARGES


@<TRIPOS>ATOM
   1 C1             0.9975    -0.1178    -0.6753 C.3     
   2 C2             1.4228    -1.5086    -0.1967 C.3     
   3 C3             0.3048    -2.5235    -0.3891 C.3     
   4 C4            -1.0787    -1.8904    -0.3380 C.3     
   5 N5            -1.0809    -0.6807     0.4877 N.pl3   
   6 C6            -0.1827     0.3084     0.1810 C.2     
   7 C7            -1.9914    -0.5561     1.6232 C.3     
   8 C8            -2.7627     0.7603     1.5162 C.3     
   9 S9            -1.5893     2.1336     1.3709 S.o2    
  10 N10           -0.3067     1.5272     0.5345 N.am    
  11 C11            2.1353     0.8551    -0.5024 C.ar    
  12 C12            2.6532     1.5139    -1.6022 C.ar    
  13 C13            3.6959     2.4065    -1.4463 C.ar    
  14 C14            4.2235     2.6417    -0.1847 C.ar    
  15 C15            3.7019     1.9792     0.9173 C.ar    
  16 C16            2.6557     1.0916     0.7567 C.ar    
  17 O17            5.2495     3.5189    -0.0287 O.3     
  18 C18            5.6568     4.2244    -1.1168 C.ar    
  19 C19            5.0634     5.4420    -1.4162 C.ar    
  20 C20            5.4772     6.1607    -2.5222 C.ar    
  21 C21            6.4831     5.6674    -3.3329 C.ar    
  22 C22            7.0798     4.4479    -3.0366 C.ar    
  23 C23            6.6700     3.7298    -1.9247 C.ar    
  24 F24            6.8857     6.3712    -4.4136 F       
  25 O25           -2.1120     3.1444     0.5198 O.2     
  26 O26           -1.0497     2.4615     2.6439 O.2     
  27 O27            8.0684     3.9625    -3.8336 O.3     
  28 C28            8.6363     2.7030    -3.4688 C.3     
  29 H29            0.7013    -0.1601    -1.7235 H       
  30 H30            2.2974    -1.8291    -0.7627 H       
  31 H31            1.6817    -1.4586     0.8609 H       
  32 H32            0.4337    -3.0100    -1.3559 H       
  33 H33            0.3757    -3.2780     0.3944 H       
  34 H34           -1.3906    -1.6322    -1.3500 H       
  35 H35           -1.7845    -2.6086     0.0794 H       
  36 H36           -2.6934    -1.3899     1.6191 H       
  37 H37           -1.4190    -0.5676     2.5508 H       
  38 H38           -3.4043     0.7354     0.6354 H       
  39 H39           -3.3741     0.8972     2.4082 H       
  40 H40            2.2424     1.3303    -2.5840 H       
  41 H41            4.1003     2.9206    -2.3057 H       
  42 H42            4.1110     2.1602     1.9003 H       
  43 H43            2.2494     0.5756     1.6141 H       
  44 H44            4.2771     5.8286    -0.7848 H       
  45 H45            5.0139     7.1084    -2.7537 H       
  46 H46            7.1327     2.7820    -1.6925 H       
  47 H47            9.0726     2.7761    -2.4726 H       
  48 H48            7.8582     1.9397    -3.4696 H       
  49 H49            9.4114     2.4325    -4.1859 H       
@<TRIPOS>BOND
   1    1    2 1
   2    1   11 1
   3    1    6 1
   4    1   29 1
   5    2    3 1
   6    2   30 1
   7    2   31 1
   8    3    4 1
   9    3   32 1
  10    3   33 1
  11    4    5 1
  12    4   34 1
  13    4   35 1
  14    5    6 1
  15    5    7 1
  16    6   10 2
  17    7    8 1
  18    7   36 1
  19    7   37 1
  20    8    9 1
  21    8   38 1
  22    8   39 1
  23    9   10 am
  24    9   25 2
  25    9   26 2
  26   11   12 ar
  27   11   16 ar
  28   12   13 ar
  29   12   40 1
  30   13   14 ar
  31   13   41 1
  32   14   15 ar
  33   14   17 1
  34   15   16 ar
  35   15   42 1
  36   16   43 1
  37   17   18 1
  38   18   19 ar
  39   18   23 ar
  40   19   20 ar
  41   19   44 1
  42   20   21 ar
  43   20   45 1
  44   21   22 ar
  45   21   24 1
  46   22   23 ar
  47   22   27 1
  48   23   46 1
  49   27   28 1
  50   28   47 1
  51   28   48 1
  52   28   49 1

#	End of record

