#	Name: ASD01901141
#	Creating user name:	WinNT
#	Creation time:	15. 06. 2019 19:53

#	Modifying user name:	WinNT
#	Modification time:	15. 06. 2019 19:53

#	Program:	/corina/corina34_cracker 3.40 0067  02.08.2006

@<TRIPOS>MOLECULE
ASD01901141
  48   50    0    0    0
SMALL
NO_CHARGES


@<TRIPOS>ATOM
   1 C1            -0.0166     1.3750     0.0096 C.ar    
   2 C2             0.0021    -0.0041     0.0020 C.ar    
   3 C3             1.2078    -0.6830    -0.0131 C.ar    
   4 C4             2.4027     0.0149    -0.0208 C.ar    
   5 C5             2.3997     1.3941    -0.0129 C.ar    
   6 C6             1.1860     2.0866     0.0019 C.ar    
   7 C7             1.1748     3.5185     0.0093 C.1     
   8 C8             1.1655     4.6925     0.0153 C.1     
   9 C9             1.1543     6.1244     0.0226 C.ar    
  10 C10            2.3583     6.8345     0.0149 C.ar    
  11 C11            2.3436     8.2144     0.0215 C.ar    
  12 C12            1.1325     8.8988     0.0358 C.ar    
  13 C13           -0.0678     8.1953     0.0435 C.ar    
  14 C14           -0.0608     6.8154     0.0316 C.ar    
  15 N15            1.1215    10.3012     0.0430 N.am    
  16 C16            1.1058    10.9687    -1.1228 C.2     
  17 N17            0.8562    12.2872    -1.1749 N.am    
  18 C18            0.4690    13.0279     0.0271 C.3     
  19 C19            1.2151    12.4633     1.2382 C.3     
  20 C20            1.1212    10.9580     1.2174 C.2     
  21 O21            1.3231    10.3649    -2.1549 O.2     
  22 C22            0.9735    12.9944    -2.4526 C.3     
  23 F23            3.5068     8.9015     0.0146 F       
  24 O24            1.0492    10.3399     2.2579 O.2     
  25 C25            0.8253    14.5056    -0.1477 C.3     
  26 C26           -1.0387    12.8899     0.2474 C.3     
  27 F27           -1.2416     8.8640     0.0574 F       
  28 C28            2.6833    12.8896     1.1784 C.3     
  29 H29           -0.9584     1.9035     0.0169 H       
  30 H30           -0.9266    -0.5554     0.0083 H       
  31 H31            1.2163    -1.7630    -0.0187 H       
  32 H32            3.3399    -0.5217    -0.0326 H       
  33 H33            3.3330     1.9375    -0.0182 H       
  34 H34            3.2989     6.3039     0.0042 H       
  35 H35           -0.9929     6.2700     0.0331 H       
  36 H36            0.7620    12.8422     2.1542 H       
  37 H37            1.2687    12.2912    -3.2313 H       
  38 H38            0.0129    13.4401    -2.7107 H       
  39 H39            1.7262    13.7781    -2.3663 H       
  40 H40            0.2933    14.9081    -1.0097 H       
  41 H41            0.5371    15.0572     0.7471 H       
  42 H42            1.8994    14.6042    -0.3051 H       
  43 H43           -1.2929    11.8373     0.3716 H       
  44 H44           -1.3271    13.4413     1.1423 H       
  45 H45           -1.5703    13.2928    -0.6147 H       
  46 H46            2.7464    13.9778     1.1883 H       
  47 H47            3.2140    12.4871     2.0413 H       
  48 H48            3.1356    12.5078     0.2631 H       
@<TRIPOS>BOND
   1    1    2 ar
   2    1    6 ar
   3    1   29 1
   4    2    3 ar
   5    2   30 1
   6    3    4 ar
   7    3   31 1
   8    4    5 ar
   9    4   32 1
  10    5    6 ar
  11    5   33 1
  12    6    7 1
  13    7    8 3
  14    8    9 1
  15    9   10 ar
  16    9   14 ar
  17   10   11 ar
  18   10   34 1
  19   11   12 ar
  20   11   23 1
  21   12   13 ar
  22   12   15 1
  23   13   14 ar
  24   13   27 1
  25   14   35 1
  26   15   16 am
  27   15   20 am
  28   16   17 am
  29   16   21 2
  30   17   18 1
  31   17   22 1
  32   18   19 1
  33   18   26 1
  34   18   25 1
  35   19   20 1
  36   19   28 1
  37   19   36 1
  38   20   24 2
  39   22   37 1
  40   22   38 1
  41   22   39 1
  42   25   40 1
  43   25   41 1
  44   25   42 1
  45   26   43 1
  46   26   44 1
  47   26   45 1
  48   28   46 1
  49   28   47 1
  50   28   48 1

#	End of record

