#	Name: ASD05170102
#	Creating user name:	WinNT
#	Creation time:	15. 06. 2019 20:57

#	Modifying user name:	WinNT
#	Modification time:	15. 06. 2019 20:57

#	Program:	/corina/corina34_cracker 3.40 0067  02.08.2006

@<TRIPOS>MOLECULE
ASD05170102
  47   50    0    0    0
SMALL
NO_CHARGES


@<TRIPOS>ATOM
   1 C1            -0.0167     1.3795     0.0096 C.ar    
   2 C2             0.0021    -0.0041     0.0020 C.ar    
   3 C3             1.2320    -0.6497    -0.0132 C.ar    
   4 C4             2.3901     0.1036    -0.0202 C.ar    
   5 N5             2.3390     1.4222    -0.0126 N.ar    
   6 C6             1.1874     2.0721     0.0018 C.ar    
   7 O7             1.1819     3.4290     0.0092 O.3     
   8 C8             2.4525     4.0830     0.0006 C.3     
   9 C9             2.2490     5.5762     0.0105 C.2     
  10 C10            1.0148     6.2398     0.0315 C.2     
  11 N11            3.1966     6.4846     0.0068 N.2     
  12 C12            1.3272     7.5694     0.0315 C.2     
  13 C13            0.4818     8.7728     0.0530 C.2     
  14 N14            2.7018     7.6600     0.0271 N.pl3   
  15 C15            3.3771     8.9629     0.0612 C.3     
  16 C16            2.4965    10.0049    -0.6270 C.3     
  17 N17            1.1093     9.9527    -0.1718 N.am    
  18 O18           -0.7152     8.7123     0.2615 O.2     
  19 C19            3.6168     9.3762     1.5146 C.3     
  20 Cl20           1.3129    -2.3838    -0.0227 Cl      
  21 C21            0.4138    11.1493     0.0416 C.ar    
  22 C22            0.4459    11.7599     1.2870 C.ar    
  23 C23           -0.2409    12.9409     1.4950 C.ar    
  24 C24           -0.9609    13.5168     0.4644 C.ar    
  25 C25           -0.9976    12.9142    -0.7793 C.ar    
  26 C26           -0.3076    11.7328    -0.9977 C.ar    
  27 O27           -0.3381    11.1419    -2.2220 O.3     
  28 C28           -1.0980    11.7968    -3.2397 C.3     
  29 H29           -0.9552     1.9140     0.0170 H       
  30 H30           -0.9183    -0.5690     0.0081 H       
  31 H31            3.3492    -0.3929    -0.0317 H       
  32 H32            3.0191     3.7876     0.8836 H       
  33 H33            3.0021     3.7972    -0.8962 H       
  34 H34            0.0303     5.7960     0.0445 H       
  35 H35            4.3318     8.8917    -0.4599 H       
  36 H36            2.8977    10.9971    -0.4206 H       
  37 H37            2.5227     9.8332    -1.7031 H       
  38 H38            4.2417     8.6305     2.0061 H       
  39 H39            4.1183    10.3437     1.5392 H       
  40 H40            2.6613     9.4489     2.0340 H       
  41 H41            1.0072    11.3122     2.0938 H       
  42 H42           -0.2154    13.4152     2.4649 H       
  43 H43           -1.4964    14.4396     0.6316 H       
  44 H44           -1.5612    13.3664    -1.5819 H       
  45 H45           -2.1387    11.8717    -2.9245 H       
  46 H46           -0.6962    12.7962    -3.4067 H       
  47 H47           -1.0386    11.2222    -4.1640 H       
@<TRIPOS>BOND
   1    1    2 ar
   2    1    6 ar
   3    1   29 1
   4    2    3 ar
   5    2   30 1
   6    3    4 ar
   7    3   20 1
   8    4    5 ar
   9    4   31 1
  10    5    6 ar
  11    6    7 1
  12    7    8 1
  13    8    9 1
  14    8   32 1
  15    8   33 1
  16    9   11 2
  17    9   10 1
  18   10   12 2
  19   10   34 1
  20   11   14 1
  21   12   14 1
  22   12   13 1
  23   13   17 am
  24   13   18 2
  25   14   15 1
  26   15   16 1
  27   15   19 1
  28   15   35 1
  29   16   17 1
  30   16   36 1
  31   16   37 1
  32   17   21 1
  33   19   38 1
  34   19   39 1
  35   19   40 1
  36   21   22 ar
  37   21   26 ar
  38   22   23 ar
  39   22   41 1
  40   23   24 ar
  41   23   42 1
  42   24   25 ar
  43   24   43 1
  44   25   26 ar
  45   25   44 1
  46   26   27 1
  47   27   28 1
  48   28   45 1
  49   28   46 1
  50   28   47 1

#	End of record

