#	Name: ASD01948325
#	Creating user name:	WinNT
#	Creation time:	15. 06. 2019 20:14

#	Modifying user name:	WinNT
#	Modification time:	15. 06. 2019 20:14

#	Program:	/corina/corina34_cracker 3.40 0067  02.08.2006

@<TRIPOS>MOLECULE
ASD01948325
  55   58    0    0    0
SMALL
NO_CHARGES


@<TRIPOS>ATOM
   1 C1            -0.1593     0.9106     0.3405 C.2     
   2 N2            -0.1815    -0.4054     0.7002 N.am    
   3 C3             0.9553    -1.0693     0.9786 C.2     
   4 C4             2.2270     0.9199     0.5386 C.2     
   5 C5             1.0109     1.5855     0.2536 C.2     
   6 C6             2.7433     3.0818     2.2267 C.ar    
   7 C7             3.6689     2.7155     1.2587 C.ar    
   8 N8             3.4359     1.5946     0.4545 N.pl3   
   9 C9             2.9755     4.1892     3.0191 C.ar    
  10 C10            4.1291     4.9342     2.8498 C.ar    
  11 C11            5.0543     4.5730     1.8865 C.ar    
  12 C12            4.8279     3.4656     1.0900 C.ar    
  13 N13            1.0182     2.9400    -0.1174 N.am    
  14 S14           -0.4071     3.7154    -0.4488 S.o2    
  15 C15           -1.0536     2.8667    -1.9158 C.3     
  16 O16            0.9090    -2.2478     1.2989 O.2     
  17 C17           -1.4647    -1.1072     0.7851 C.3     
  18 F18            5.7312     3.1128     0.1493 F       
  19 Br19           4.4416     6.4495     3.9369 Br      
  20 O20           -1.2235     3.4469     0.6829 O.2     
  21 O21           -0.0168     5.0429    -0.7722 O.2     
  22 C22            2.1907    -0.4157     0.9024 C.2     
  23 C23           -1.4813    -2.2954    -0.1925 C.3     
  24 F24            3.3338    -1.0796     1.1814 F       
  25 C25           -1.6782    -3.5654     0.6608 C.3     
  26 C26           -2.3598    -3.0525     1.9536 C.3     
  27 C27           -1.6521    -1.6966     2.1983 C.3     
  28 C28           -2.3552     3.5409    -2.3840 C.3     
  29 C29           -2.0975     4.0484    -3.8179 C.3     
  30 C30           -0.9439     3.1540    -4.3358 C.3     
  31 C31           -0.0505     2.9880    -3.0815 C.3     
  32 H32           -1.0860     1.4187     0.1183 H       
  33 H33            1.8403     2.5039     2.3570 H       
  34 H34            4.1198     1.2893    -0.1619 H       
  35 H35            2.2553     4.4742     3.7718 H       
  36 H36            5.9537     5.1567     1.7564 H       
  37 H37            1.8580     3.4214    -0.1795 H       
  38 H38           -1.2378     1.8167    -1.6886 H       
  39 H39           -2.2806    -0.4223     0.5542 H       
  40 H40           -2.3058    -2.1875    -0.8973 H       
  41 H41           -0.5347    -2.3498    -0.7301 H       
  42 H42           -2.3245    -4.2753     0.1446 H       
  43 H43           -0.7161    -4.0224     0.8923 H       
  44 H44           -3.4285    -2.9074     1.7954 H       
  45 H45           -2.1804    -3.7371     2.7826 H       
  46 H46           -0.6858    -1.8519     2.6782 H       
  47 H47           -2.2793    -1.0428     2.8043 H       
  48 H48           -3.1708     2.8179    -2.3848 H       
  49 H49           -2.5983     4.3780    -1.7297 H       
  50 H50           -2.9871     3.9185    -4.4341 H       
  51 H51           -1.7919     5.0946    -3.8031 H       
  52 H52           -1.3238     2.1885    -4.6699 H       
  53 H53           -0.3975     3.6532    -5.1360 H       
  54 H54            0.5857     3.8630    -2.9478 H       
  55 H55            0.5538     2.0843    -3.1604 H       
@<TRIPOS>BOND
   1    1    2 1
   2    1    5 2
   3    1   32 1
   4    2    3 am
   5    2   17 1
   6    3   22 1
   7    3   16 2
   8    4    5 1
   9    4    8 1
  10    4   22 2
  11    5   13 1
  12    6    7 ar
  13    6    9 ar
  14    6   33 1
  15    7    8 1
  16    7   12 ar
  17    8   34 1
  18    9   10 ar
  19    9   35 1
  20   10   11 ar
  21   10   19 1
  22   11   12 ar
  23   11   36 1
  24   12   18 1
  25   13   14 am
  26   13   37 1
  27   14   15 1
  28   14   20 2
  29   14   21 2
  30   15   28 1
  31   15   31 1
  32   15   38 1
  33   17   23 1
  34   17   27 1
  35   17   39 1
  36   22   24 1
  37   23   25 1
  38   23   40 1
  39   23   41 1
  40   25   26 1
  41   25   42 1
  42   25   43 1
  43   26   27 1
  44   26   44 1
  45   26   45 1
  46   27   46 1
  47   27   47 1
  48   28   29 1
  49   28   48 1
  50   28   49 1
  51   29   30 1
  52   29   50 1
  53   29   51 1
  54   30   31 1
  55   30   52 1
  56   30   53 1
  57   31   54 1
  58   31   55 1

#	End of record

