#	Name: ASD04590605
#	Creating user name:	WinNT
#	Creation time:	15. 06. 2019 20:51

#	Modifying user name:	WinNT
#	Modification time:	15. 06. 2019 20:51

#	Program:	/corina/corina34_cracker 3.40 0067  02.08.2006

@<TRIPOS>MOLECULE
ASD04590605
  58   63    0    0    0
SMALL
NO_CHARGES


@<TRIPOS>ATOM
   1 N1            -0.0170     1.3238    -0.0110 N.ar    
   2 C2             0.0017    -0.0035    -0.0048 C.ar    
   3 N3             1.1295    -0.6938    -0.0120 N.ar    
   4 C4             2.3034    -0.0716    -0.0265 C.ar    
   5 C5             2.3201     1.3427    -0.0335 C.ar    
   6 C6             1.1048     2.0227    -0.0249 C.ar    
   7 N7             3.6064    -0.5030    -0.0375 N.pl3   
   8 C8             4.4546     0.5628    -0.0500 C.2     
   9 C9             3.7271     1.7217    -0.0490 C.2     
  10 C10            5.9653     0.6000    -0.0617 C.3     
  11 N11            6.3725     1.8855    -0.6484 N.pl3   
  12 C12            5.6963     3.0621    -0.3559 C.2     
  13 C13            4.3827     3.0444    -0.0638 C.2     
  14 N14           -1.2030    -0.6899     0.0101 N.pl3   
  15 C15           -2.4034     0.0106     0.1309 C.ar    
  16 C16            4.0244    -1.9071    -0.0356 C.3     
  17 N17           -2.3907     1.3180     0.3315 N.ar    
  18 N18           -3.4702     2.0024     0.4480 N.ar    
  19 C19           -4.6684     1.4461     0.3754 C.ar    
  20 C20           -4.7843     0.0710     0.1656 C.ar    
  21 C21           -3.6205    -0.6657     0.0347 C.ar    
  22 N22           -5.8118     2.2310     0.5085 N.3     
  23 C23            3.4337    -2.6327     1.1909 C.3     
  24 C24            3.4703    -2.6238    -1.2794 C.3     
  25 C25            2.5621    -3.7599    -0.7653 C.3     
  26 C26            2.1431    -3.2991     0.6528 C.3     
  27 C27           -6.6678     1.7345     1.5950 C.3     
  28 C28           -5.4602     3.6418     0.7218 C.3     
  29 C29           -6.7394     4.4799     0.7833 C.3     
  30 N30           -7.5954     3.9834     1.8697 N.3     
  31 C31           -7.9470     2.5726     1.6565 C.3     
  32 H32            1.0793     3.1024    -0.0303 H       
  33 H33            6.3452     0.5213     0.9569 H       
  34 H34            6.3510    -0.2211    -0.6659 H       
  35 H35            7.1306     1.9120    -1.2530 H       
  36 H36            6.2297     4.0011    -0.3630 H       
  37 H37            3.8361     3.9513     0.1488 H       
  38 H38           -1.2111    -1.6570    -0.0634 H       
  39 H39            5.1124    -1.9724    -0.0208 H       
  40 H40           -5.7529    -0.4027     0.1032 H       
  41 H41           -3.6528    -1.7327    -0.1294 H       
  42 H42            4.1283    -3.3881     1.5584 H       
  43 H43            3.1942    -1.9180     1.9782 H       
  44 H44            2.8903    -1.9269    -1.8844 H       
  45 H45            4.2892    -3.0376    -1.8677 H       
  46 H46            1.6866    -3.8677    -1.4056 H       
  47 H47            3.1160    -4.6973    -0.7137 H       
  48 H48            1.8633    -4.1531     1.2696 H       
  49 H49            1.3288    -2.5765     0.5993 H       
  50 H50           -6.9248     0.6919     1.4079 H       
  51 H51           -6.1352     1.8137     2.5427 H       
  52 H52           -4.9139     3.7427     1.6596 H       
  53 H53           -4.8367     3.9898    -0.1019 H       
  54 H54           -6.4824     5.5225     0.9703 H       
  55 H55           -7.2719     4.4007    -0.1644 H       
  56 H56           -7.1530     4.1142     2.7671 H       
  57 H57           -8.4933     2.4717     0.7187 H       
  58 H58           -8.5704     2.2246     2.4801 H       
@<TRIPOS>BOND
   1    1    2 ar
   2    1    6 ar
   3    2    3 ar
   4    2   14 1
   5    3    4 ar
   6    4    5 ar
   7    4    7 1
   8    5    6 ar
   9    5    9 1
  10    6   32 1
  11    7    8 1
  12    7   16 1
  13    8    9 2
  14    8   10 1
  15    9   13 1
  16   10   11 1
  17   10   33 1
  18   10   34 1
  19   11   12 1
  20   11   35 1
  21   12   13 2
  22   12   36 1
  23   13   37 1
  24   14   15 1
  25   14   38 1
  26   15   17 ar
  27   15   21 ar
  28   16   24 1
  29   16   23 1
  30   16   39 1
  31   17   18 ar
  32   18   19 ar
  33   19   20 ar
  34   19   22 1
  35   20   21 ar
  36   20   40 1
  37   21   41 1
  38   22   28 1
  39   22   27 1
  40   23   26 1
  41   23   42 1
  42   23   43 1
  43   24   25 1
  44   24   44 1
  45   24   45 1
  46   25   26 1
  47   25   46 1
  48   25   47 1
  49   26   48 1
  50   26   49 1
  51   27   31 1
  52   27   50 1
  53   27   51 1
  54   28   29 1
  55   28   52 1
  56   28   53 1
  57   29   30 1
  58   29   54 1
  59   29   55 1
  60   30   31 1
  61   30   56 1
  62   31   57 1
  63   31   58 1

#	End of record

