#	Name: ASD09890010
#	Creating user name:	WinNT
#	Creation time:	15. 06. 2019 21:24

#	Modifying user name:	WinNT
#	Modification time:	15. 06. 2019 21:24

#	Program:	/corina/corina34_cracker 3.40 0067  02.08.2006

@<TRIPOS>MOLECULE
ASD09890010
  51   54    0    0    0
SMALL
NO_CHARGES


@<TRIPOS>ATOM
   1 C1            -0.0167     1.3771     0.0096 C.ar    
   2 C2             0.0021    -0.0041     0.0020 C.ar    
   3 C3             1.2080    -0.6804    -0.0127 C.ar    
   4 C4             2.3983     0.0232    -0.0203 C.ar    
   5 C5             2.3858     1.4044    -0.0132 C.ar    
   6 C6             1.1767     2.0861     0.0020 C.ar    
   7 N7             1.1608     3.4886     0.0092 N.pl3   
   8 C8             1.6008     4.3209    -0.9762 C.2     
   9 C9             0.6967     4.3005     1.0007 C.2     
  10 N10            0.8682     5.5319     0.6033 N.2     
  11 N11            1.4028     5.5440    -0.5656 N.2     
  12 C12            2.2033     3.9064    -2.2938 C.3     
  13 O13            1.1672     3.7640    -3.2676 O.3     
  14 C14            1.5438     3.3919    -4.5193 C.ar    
  15 C15            0.5897     3.2349    -5.5141 C.ar    
  16 C16            0.9750     2.8566    -6.7856 C.ar    
  17 C17            2.3104     2.6345    -7.0672 C.ar    
  18 C18            3.2632     2.7899    -6.0774 C.ar    
  19 C19            2.8836     3.1741    -4.8058 C.ar    
  20 C20            0.0968     3.8589     2.3107 C.3     
  21 C21            1.2038     3.7209     3.3578 C.3     
  22 C22            0.5821     3.3943     4.7171 C.3     
  23 C23            1.6890     3.2563     5.7643 C.3     
  24 C24            2.6408     2.1304     5.3550 C.3     
  25 C25            3.2624     2.4570     3.9956 C.3     
  26 C26            2.1555     2.5950     2.9485 C.3     
  27 H27           -0.9589     1.9048     0.0170 H       
  28 H28           -0.9261    -0.5562     0.0079 H       
  29 H29            1.2203    -1.7603    -0.0179 H       
  30 H30            3.3388    -0.5077    -0.0314 H       
  31 H31            3.3158     1.9534    -0.0187 H       
  32 H32            2.9110     4.6665    -2.6248 H       
  33 H33            2.7217     2.9552    -2.1731 H       
  34 H34           -0.4535     3.4079    -5.2945 H       
  35 H35            0.2326     2.7339    -7.5603 H       
  36 H36            2.6096     2.3388    -8.0619 H       
  37 H37            4.3055     2.6152    -6.2996 H       
  38 H38            3.6282     3.2954    -4.0330 H       
  39 H39           -0.6298     4.5992     2.6454 H       
  40 H40           -0.3992     2.8974     2.1774 H       
  41 H41            1.7572     4.6573     3.4270 H       
  42 H42           -0.0959     4.1963     5.0087 H       
  43 H43            0.0286     2.4578     4.6479 H       
  44 H44            2.2425     4.1927     5.8334 H       
  45 H45            1.2462     3.0236     6.7327 H       
  46 H46            3.4294     2.0321     6.1010 H       
  47 H47            2.0873     1.1939     5.2858 H       
  48 H48            3.8159     3.3935     4.0648 H       
  49 H49            3.9405     1.6549     3.7041 H       
  50 H50            1.6020     1.6585     2.8793 H       
  51 H51            2.5984     2.8277     1.9801 H       
@<TRIPOS>BOND
   1    1    2 ar
   2    1    6 ar
   3    1   27 1
   4    2    3 ar
   5    2   28 1
   6    3    4 ar
   7    3   29 1
   8    4    5 ar
   9    4   30 1
  10    5    6 ar
  11    5   31 1
  12    6    7 1
  13    7    8 1
  14    7    9 1
  15    8   12 1
  16    8   11 2
  17    9   10 2
  18    9   20 1
  19   10   11 1
  20   12   13 1
  21   12   32 1
  22   12   33 1
  23   13   14 1
  24   14   15 ar
  25   14   19 ar
  26   15   16 ar
  27   15   34 1
  28   16   17 ar
  29   16   35 1
  30   17   18 ar
  31   17   36 1
  32   18   19 ar
  33   18   37 1
  34   19   38 1
  35   20   21 1
  36   20   39 1
  37   20   40 1
  38   21   22 1
  39   21   26 1
  40   21   41 1
  41   22   23 1
  42   22   42 1
  43   22   43 1
  44   23   24 1
  45   23   44 1
  46   23   45 1
  47   24   25 1
  48   24   46 1
  49   24   47 1
  50   25   26 1
  51   25   48 1
  52   25   49 1
  53   26   50 1
  54   26   51 1

#	End of record

