#	Name: ASD01140507
#	Creating user name:	WinNT
#	Creation time:	15. 06. 2019 19:01

#	Modifying user name:	WinNT
#	Modification time:	15. 06. 2019 19:01

#	Program:	/corina/corina34_cracker 3.40 0067  02.08.2006

@<TRIPOS>MOLECULE
ASD01140507
  48   49    0    0    0
SMALL
NO_CHARGES


@<TRIPOS>ATOM
   1 C1            -0.0285     1.3530     0.0666 C.ar    
   2 C2            -0.0008    -0.0272     0.0700 C.ar    
   3 C3             1.2065    -0.7007     0.0360 C.ar    
   4 C4             2.4002     0.0062    -0.0018 C.ar    
   5 C5             2.3836     1.3973    -0.0056 C.ar    
   6 C6             1.1630     2.0750     0.0288 C.ar    
   7 C7             1.1348     3.5580     0.0250 C.ar    
   8 C8             0.3189     4.2388    -0.8774 C.ar    
   9 C9             0.2949     5.6175    -0.8784 C.ar    
  10 C10            1.0825     6.3277     0.0177 C.ar    
  11 C11            1.8959     5.6527     0.9174 C.ar    
  12 C12            1.9196     4.2736     0.9275 C.ar    
  13 O13            3.5503     2.0938    -0.0421 O.3     
  14 O14            1.0574     7.6863     0.0136 O.3     
  15 C15            1.8924     8.3535     0.9621 C.3     
  16 C16           -1.2919    -0.8033     0.1114 C.3     
  17 C17           -1.7652    -1.0664    -1.2949 C.2     
  18 C18           -2.0115    -2.2927    -1.6845 C.2     
  19 C19           -0.5868     6.3542    -1.8536 C.3     
  20 C20            0.2150     6.7255    -3.0744 C.2     
  21 C21           -0.1960     6.3611    -4.2637 C.2     
  22 N22            3.6213    -0.6807    -0.0356 N.am    
  23 C23            3.6775    -1.9310    -0.5358 C.2     
  24 C24            5.0043    -2.6355    -0.6559 C.3     
  25 O25            2.6603    -2.4891    -0.8892 O.2     
  26 H26           -0.9745     1.8737     0.0887 H       
  27 H27            1.2204    -1.7806     0.0393 H       
  28 H28           -0.2935     3.6869    -1.5751 H       
  29 H29            2.5077     6.2079     1.6130 H       
  30 H30            2.5493     3.7489     1.6307 H       
  31 H31            3.8619     2.2926    -0.9356 H       
  32 H32            1.6041     8.0582     1.9710 H       
  33 H33            2.9326     8.0793     0.7866 H       
  34 H34            1.7774     9.4318     0.8523 H       
  35 H35           -1.1294    -1.7517     0.6235 H       
  36 H36           -2.0459    -0.2260     0.6465 H       
  37 H37           -1.9014    -0.2440    -1.9816 H       
  38 H38           -1.8754    -3.1151    -0.9979 H       
  39 H39           -2.3507    -2.4812    -2.6924 H       
  40 H40           -1.4190     5.7140    -2.1463 H       
  41 H41           -0.9723     7.2588    -1.3832 H       
  42 H42            1.1284     7.2920    -2.9688 H       
  43 H43           -1.1094     5.7946    -4.3693 H       
  44 H44            0.3786     6.6271    -5.1385 H       
  45 H45            4.4260    -0.2563     0.3009 H       
  46 H46            5.4582    -2.7260     0.3310 H       
  47 H47            4.8513    -3.6288    -1.0779 H       
  48 H48            5.6629    -2.0614    -1.3075 H       
@<TRIPOS>BOND
   1    1    2 ar
   2    1    6 ar
   3    1   26 1
   4    2    3 ar
   5    2   16 1
   6    3    4 ar
   7    3   27 1
   8    4    5 ar
   9    4   22 1
  10    5    6 ar
  11    5   13 1
  12    6    7 1
  13    7    8 ar
  14    7   12 ar
  15    8    9 ar
  16    8   28 1
  17    9   10 ar
  18    9   19 1
  19   10   11 ar
  20   10   14 1
  21   11   12 ar
  22   11   29 1
  23   12   30 1
  24   13   31 1
  25   14   15 1
  26   15   32 1
  27   15   33 1
  28   15   34 1
  29   16   17 1
  30   16   35 1
  31   16   36 1
  32   17   18 2
  33   17   37 1
  34   18   38 1
  35   18   39 1
  36   19   20 1
  37   19   40 1
  38   19   41 1
  39   20   21 2
  40   20   42 1
  41   21   43 1
  42   21   44 1
  43   22   23 am
  44   22   45 1
  45   23   24 1
  46   23   25 2
  47   24   46 1
  48   24   47 1
  49   24   48 1

#	End of record

