#	Name: ASD01912715
#	Creating user name:	WinNT
#	Creation time:	15. 06. 2019 20:00

#	Modifying user name:	WinNT
#	Modification time:	15. 06. 2019 20:00

#	Program:	/corina/corina34_cracker 3.40 0067  02.08.2006

@<TRIPOS>MOLECULE
ASD01912715
  58   61    0    0    0
SMALL
NO_CHARGES


@<TRIPOS>ATOM
   1 C1            -0.0184     1.5028     0.0103 C.3     
   2 C2             0.0021    -0.0041     0.0020 C.2     
   3 N3            -0.0928    -0.7934    -1.0897 N.pl3   
   4 C4             0.1243    -0.8025     1.0846 C.2     
   5 C5             0.0985    -2.1391     0.6405 C.2     
   6 N6            -0.0323    -2.1282    -0.6695 N.2     
   7 C7             0.2037    -3.3457     1.4971 C.ar    
   8 C8             0.1628    -4.6109     0.9154 C.ar    
   9 N9             0.3414    -3.2100     2.8096 N.ar    
  10 C10            0.4387    -4.2549     3.6059 C.ar    
  11 C11            0.4008    -5.5423     3.0964 C.ar    
  12 C12            0.2625    -5.7279     1.7262 C.ar    
  13 C13           -0.2343    -0.3333    -2.4734 C.3     
  14 C14            1.1312    -0.1549    -3.0856 C.2     
  15 N15            1.2482     0.2648    -4.3610 N.am    
  16 O16            2.1247    -0.3890    -2.4306 O.2     
  17 C17            2.5711     0.4455    -4.9778 C.3     
  18 C18            2.5923    -0.3059    -6.3132 C.3     
  19 N19            1.4578     0.1333    -7.1366 N.3     
  20 C20            0.1766    -0.2014    -6.5006 C.3     
  21 C21            0.0564     0.5484    -5.1748 C.3     
  22 C22            1.5338    -0.4035    -8.4165 C.ar    
  23 N23            2.5452    -1.1958    -8.7366 N.ar    
  24 C24            2.6548    -1.7259    -9.9402 C.ar    
  25 C25            1.7115    -1.4704   -10.9149 C.ar    
  26 C26            0.6348    -0.6443   -10.6196 C.ar    
  27 C27            0.5434    -0.1082    -9.3480 C.ar    
  28 C28            1.3963     3.5622     0.0079 C.3     
  29 C29            1.4170     2.0324    -0.0006 C.3     
  30 F30            0.5019    -6.6065     3.9224 F       
  31 C31            0.5937    -4.0469     5.0904 C.3     
  32 H32           -0.5455     1.8639    -0.8728 H       
  33 H33           -0.5286     1.8543     0.9071 H       
  34 H34            0.2247    -0.4744     2.1086 H       
  35 H35            0.0545    -4.7185    -0.1537 H       
  36 H36            0.2299    -6.7214     1.3040 H       
  37 H37           -0.7956    -1.0716    -3.0461 H       
  38 H38           -0.7659     0.6182    -2.4874 H       
  39 H39            2.7523     1.5062    -5.1516 H       
  40 H40            3.3404     0.0429    -4.3189 H       
  41 H41            3.5249    -0.0929    -6.8357 H       
  42 H42            2.5147    -1.3774    -6.1289 H       
  43 H43           -0.6427     0.0875    -7.1589 H       
  44 H44            0.1327    -1.2743    -6.3137 H       
  45 H45           -0.8373     0.2166    -4.6462 H       
  46 H46           -0.0037     1.6201    -5.3644 H       
  47 H47            3.4936    -2.3677   -10.1656 H       
  48 H48            1.8099    -1.9081   -11.8973 H       
  49 H49           -0.1164    -0.4287   -11.3650 H       
  50 H50           -0.2809     0.5379    -9.0843 H       
  51 H51            0.8861     3.9137     0.9047 H       
  52 H52            2.4189     3.9395     0.0001 H       
  53 H53            0.8691     3.9233    -0.8752 H       
  54 H54            1.9442     1.6713     0.8825 H       
  55 H55            1.9272     1.6808    -0.8974 H       
  56 H56           -0.3908    -4.0093     5.5568 H       
  57 H57            1.1656    -4.8719     5.5152 H       
  58 H58            1.1183    -3.1091     5.2731 H       
@<TRIPOS>BOND
   1    1    2 1
   2    1   29 1
   3    1   32 1
   4    1   33 1
   5    2    3 1
   6    2    4 2
   7    3   13 1
   8    3    6 1
   9    4    5 1
  10    4   34 1
  11    5    6 2
  12    5    7 1
  13    7    8 ar
  14    7    9 ar
  15    8   12 ar
  16    8   35 1
  17    9   10 ar
  18   10   11 ar
  19   10   31 1
  20   11   12 ar
  21   11   30 1
  22   12   36 1
  23   13   14 1
  24   13   37 1
  25   13   38 1
  26   14   15 am
  27   14   16 2
  28   15   17 1
  29   15   21 1
  30   17   18 1
  31   17   39 1
  32   17   40 1
  33   18   19 1
  34   18   41 1
  35   18   42 1
  36   19   20 1
  37   19   22 1
  38   20   21 1
  39   20   43 1
  40   20   44 1
  41   21   45 1
  42   21   46 1
  43   22   23 ar
  44   22   27 ar
  45   23   24 ar
  46   24   25 ar
  47   24   47 1
  48   25   26 ar
  49   25   48 1
  50   26   27 ar
  51   26   49 1
  52   27   50 1
  53   28   29 1
  54   28   51 1
  55   28   52 1
  56   28   53 1
  57   29   54 1
  58   29   55 1
  59   31   56 1
  60   31   57 1
  61   31   58 1

#	End of record

