#	Name: ASD03730164
#	Creating user name:	WinNT
#	Creation time:	15. 06. 2019 20:44

#	Modifying user name:	WinNT
#	Modification time:	15. 06. 2019 20:44

#	Program:	/corina/corina34_cracker 3.40 0067  02.08.2006

@<TRIPOS>MOLECULE
ASD03730164
  48   52    0    0    0
SMALL
NO_CHARGES


@<TRIPOS>ATOM
   1 O1            -0.0175     1.4356     0.0099 O.3     
   2 C2             0.0021    -0.0041     0.0020 C.3     
   3 O3             1.2460    -0.3259    -0.6475 O.3     
   4 C4             2.0712     0.7341    -0.4020 C.ar    
   5 C5             1.2935     1.8179    -0.0005 C.ar    
   6 C6             3.4458     0.8633    -0.4874 C.ar    
   7 C7             4.0608     2.0728    -0.1786 C.ar    
   8 C8             3.2725     3.1522     0.2087 C.ar    
   9 C9             1.9023     3.0242     0.3021 C.ar    
  10 O10            5.3842     2.4025    -0.1783 O.3     
  11 C11            4.2098     4.3074     0.4382 C.3     
  12 C12            5.5162     3.8365    -0.2158 C.3     
  13 N13            3.6182     6.4810     0.8220 N.am    
  14 C14            3.7046     5.5806    -0.1775 C.2     
  15 C15            4.3924     4.6157     1.8943 C.ar    
  16 C16            4.8279     3.8733     2.9870 C.ar    
  17 C17            4.8859     4.4676     4.2503 C.ar    
  18 C18            4.5102     5.7869     4.4026 C.ar    
  19 C19            4.0786     6.5221     3.3170 C.ar    
  20 C20            4.0154     5.9443     2.0497 C.ar    
  21 C21            5.2148     2.5050     2.8180 C.1     
  22 N22            5.5217     1.4195     2.6839 N.1     
  23 C23            3.1609     7.8611     0.6423 C.3     
  24 C24            1.6448     7.9255     0.8379 C.3     
  25 C25            1.1671     9.3668     0.6502 C.3     
  26 C26           -0.3490     9.4313     0.8459 C.3     
  27 C27           -0.8266    10.8726     0.6582 C.3     
  28 O28            3.4285     5.7629    -1.3444 O.2     
  29 H29           -0.0101    -0.3928     1.0203 H       
  30 H30           -0.8403    -0.3954    -0.5684 H       
  31 H31            4.0457     0.0197    -0.7954 H       
  32 H32            1.3026     3.8672     0.6123 H       
  33 H33            6.3791     4.1612     0.3655 H       
  34 H34            5.5846     4.1922    -1.2439 H       
  35 H35            5.2228     3.8973     5.1034 H       
  36 H36            4.5539     6.2473     5.3786 H       
  37 H37            3.7871     7.5534     3.4504 H       
  38 H38            3.6494     8.5040     1.3745 H       
  39 H39            3.4121     8.1991    -0.3631 H       
  40 H40            1.1563     7.2826     0.1057 H       
  41 H41            1.3935     7.5875     1.8433 H       
  42 H42            1.6556    10.0098     1.3824 H       
  43 H43            1.4184     9.7049    -0.3551 H       
  44 H44           -0.8374     8.7883     0.1137 H       
  45 H45           -0.6002     9.0932     1.8513 H       
  46 H46           -0.3381    11.5155     1.3904 H       
  47 H47           -0.5754    11.2107    -0.3471 H       
  48 H48           -1.9067    10.9185     0.7976 H       
@<TRIPOS>BOND
   1    1    2 1
   2    1    5 1
   3    2    3 1
   4    2   29 1
   5    2   30 1
   6    3    4 1
   7    4    5 ar
   8    4    6 ar
   9    5    9 ar
  10    6    7 ar
  11    6   31 1
  12    7    8 ar
  13    7   10 1
  14    8    9 ar
  15    8   11 1
  16    9   32 1
  17   10   12 1
  18   11   12 1
  19   11   14 1
  20   11   15 1
  21   12   33 1
  22   12   34 1
  23   13   14 am
  24   13   20 1
  25   13   23 1
  26   14   28 2
  27   15   16 ar
  28   15   20 ar
  29   16   17 ar
  30   16   21 1
  31   17   18 ar
  32   17   35 1
  33   18   19 ar
  34   18   36 1
  35   19   20 ar
  36   19   37 1
  37   21   22 3
  38   23   24 1
  39   23   38 1
  40   23   39 1
  41   24   25 1
  42   24   40 1
  43   24   41 1
  44   25   26 1
  45   25   42 1
  46   25   43 1
  47   26   27 1
  48   26   44 1
  49   26   45 1
  50   27   46 1
  51   27   47 1
  52   27   48 1

#	End of record

