#	Name: ASD01000111
#	Creating user name:	WinNT
#	Creation time:	15. 06. 2019 18:54

#	Modifying user name:	WinNT
#	Modification time:	15. 06. 2019 18:54

#	Program:	/corina/corina34_cracker 3.40 0067  02.08.2006

@<TRIPOS>MOLECULE
ASD01000111
  42   44    0    0    0
SMALL
NO_CHARGES


@<TRIPOS>ATOM
   1 C1             0.0111     1.5238    -0.1254 C.ar    
   2 C2             0.0163     0.1445    -0.1148 C.ar    
   3 C3             1.2123    -0.5562    -0.0243 C.ar    
   4 C4             2.4020     0.1325     0.0489 C.ar    
   5 C5             2.3945     1.5215     0.0409 C.ar    
   6 C6             1.2056     2.2155    -0.0457 C.ar    
   7 C7             1.1439    -2.0608    -0.0024 C.3     
   8 C8             2.5059    -2.6655    -0.3371 C.3     
   9 C9             3.5599    -2.0148     0.5664 C.3     
  10 C10            3.7364    -0.5613     0.1316 C.3     
  11 S11            4.7849     0.3001     1.3354 S.3     
  12 C12            3.8405     0.2093     2.8202 C.ar    
  13 C13            4.3683     0.6936     4.0105 C.ar    
  14 N14            4.8360    -2.7298     0.4320 N.3     
  15 C15            0.7139    -2.5260     1.3904 C.3     
  16 C16            0.1152    -2.5341    -1.0313 C.3     
  17 C17            3.6271     0.6224     5.1734 C.ar    
  18 C18            2.3559     0.0674     5.1533 C.ar    
  19 C19            1.8279    -0.4165     3.9654 C.ar    
  20 C20            2.5653    -0.3415     2.8003 C.ar    
  21 O21            1.6270    -0.0026     6.2994 O.3     
  22 H22           -0.9225     2.0616    -0.2003 H       
  23 H23           -0.9172    -0.3951    -0.1771 H       
  24 H24            3.3271     2.0625     0.1034 H       
  25 H25            1.2078     3.2955    -0.0516 H       
  26 H26            2.4837    -3.7407    -0.1596 H       
  27 H27            2.7472    -2.4704    -1.3820 H       
  28 H28            3.2264    -2.0497     1.6035 H       
  29 H29            4.2167    -0.5345    -0.8466 H       
  30 H30            5.3581     1.1254     4.0263 H       
  31 H31            5.5453    -2.3172     1.0193 H       
  32 H32            4.7237    -3.7115     0.6362 H       
  33 H33           -0.2008    -2.0087     1.6799 H       
  34 H34            0.5341    -3.6009     1.3750 H       
  35 H35            1.5021    -2.2997     2.1084 H       
  36 H36            0.4124    -2.1964    -2.0241 H       
  37 H37            0.0628    -3.6228    -1.0183 H       
  38 H38           -0.8625    -2.1204    -0.7844 H       
  39 H39            4.0373     0.9985     6.0989 H       
  40 H40            0.8383    -0.8487     3.9511 H       
  41 H41            2.1540    -0.7183     1.8755 H       
  42 H42            1.0716     0.7725     6.4603 H       
@<TRIPOS>BOND
   1    1    2 ar
   2    1    6 ar
   3    1   22 1
   4    2    3 ar
   5    2   23 1
   6    3    4 ar
   7    3    7 1
   8    4    5 ar
   9    4   10 1
  10    5    6 ar
  11    5   24 1
  12    6   25 1
  13    7    8 1
  14    7   15 1
  15    7   16 1
  16    8    9 1
  17    8   26 1
  18    8   27 1
  19    9   10 1
  20    9   14 1
  21    9   28 1
  22   10   11 1
  23   10   29 1
  24   11   12 1
  25   12   13 ar
  26   12   20 ar
  27   13   17 ar
  28   13   30 1
  29   14   31 1
  30   14   32 1
  31   15   33 1
  32   15   34 1
  33   15   35 1
  34   16   36 1
  35   16   37 1
  36   16   38 1
  37   17   18 ar
  38   17   39 1
  39   18   19 ar
  40   18   21 1
  41   19   20 ar
  42   19   40 1
  43   20   41 1
  44   21   42 1

#	End of record

