#	Name: ASD01028250
#	Creating user name:	WinNT
#	Creation time:	15. 06. 2019 18:56

#	Modifying user name:	WinNT
#	Modification time:	15. 06. 2019 18:56

#	Program:	/corina/corina34_cracker 3.40 0067  02.08.2006

@<TRIPOS>MOLECULE
ASD01028250
  47   51    0    0    0
SMALL
NO_CHARGES


@<TRIPOS>ATOM
   1 C1            -0.0166     1.3719     0.0096 C.ar    
   2 C2             0.0021    -0.0041     0.0020 C.ar    
   3 C3             1.1750     2.1035     0.0021 C.ar    
   4 C4             2.3797     1.4715    -0.0128 C.ar    
   5 C5             2.4326     0.0695    -0.0208 C.ar    
   6 C6             1.2322    -0.6815    -0.0134 C.ar    
   7 C7             3.6676    -0.6170    -0.0367 C.ar    
   8 C8             3.6411    -2.0003    -0.0444 C.ar    
   9 C9             2.4221    -2.6660    -0.0364 C.ar    
  10 N10            1.2804    -2.0188    -0.0211 N.ar    
  11 O11            4.8427     0.0593    -0.0447 O.3     
  12 C12            6.0400    -0.7207    -0.0607 C.3     
  13 C13            7.2364     0.1957    -0.0676 C.2     
  14 N14            8.5454    -0.1836    -0.0826 N.pl3   
  15 C15            9.2970     0.9646    -0.0844 C.2     
  16 N16            8.4672     1.9982    -0.0709 N.2     
  17 C17            7.2114     1.5494    -0.0660 C.2     
  18 N18            9.1738    -1.4327    -0.0947 N.2     
  19 C19           10.4855    -1.5205    -0.1079 C.2     
  20 C20           11.2851    -0.3589    -0.1097 C.2     
  21 C21           10.7025     0.8690    -0.0989 C.2     
  22 C22           11.1314    -2.8558    -0.1207 C.ar    
  23 O23           -1.2065     2.0271     0.0188 O.3     
  24 C24           -1.1606     3.4553     0.0263 C.3     
  25 C25           10.3502    -4.0097    -0.1186 C.ar    
  26 C26           10.9542    -5.2506    -0.1304 C.ar    
  27 C27           12.3352    -5.3513    -0.1439 C.ar    
  28 C28           13.1182    -4.2053    -0.1455 C.ar    
  29 C29           12.5213    -2.9596    -0.1404 C.ar    
  30 F30           14.4652    -4.3083    -0.1577 F       
  31 F31           12.9219    -6.5682    -0.1549 F       
  32 H32           -0.9239    -0.5598     0.0082 H       
  33 H33            1.1387     3.1829     0.0079 H       
  34 H34            3.2932     2.0476    -0.0188 H       
  35 H35            4.5646    -2.5602    -0.0569 H       
  36 H36            2.4134    -3.7460    -0.0425 H       
  37 H37            6.0728    -1.3543     0.8256 H       
  38 H38            6.0552    -1.3447    -0.9543 H       
  39 H39            6.3229     2.1632    -0.0560 H       
  40 H40           12.3616    -0.4450    -0.1198 H       
  41 H41           11.3104     1.7617    -0.1001 H       
  42 H42           -0.6312     3.7971     0.9157 H       
  43 H43           -0.6396     3.8068    -0.8642 H       
  44 H44           -2.1761     3.8514     0.0333 H       
  45 H45            9.2730    -3.9330    -0.1074 H       
  46 H46           10.3486    -6.1449    -0.1289 H       
  47 H47           13.1304    -2.0678    -0.1421 H       
@<TRIPOS>BOND
   1    1    2 ar
   2    1    3 ar
   3    1   23 1
   4    2    6 ar
   5    2   32 1
   6    3    4 ar
   7    3   33 1
   8    4    5 ar
   9    4   34 1
  10    5    6 ar
  11    5    7 ar
  12    6   10 ar
  13    7    8 ar
  14    7   11 1
  15    8    9 ar
  16    8   35 1
  17    9   10 ar
  18    9   36 1
  19   11   12 1
  20   12   13 1
  21   12   37 1
  22   12   38 1
  23   13   14 1
  24   13   17 2
  25   14   15 1
  26   14   18 1
  27   15   16 2
  28   15   21 1
  29   16   17 1
  30   17   39 1
  31   18   19 2
  32   19   20 1
  33   19   22 1
  34   20   21 2
  35   20   40 1
  36   21   41 1
  37   22   25 ar
  38   22   29 ar
  39   23   24 1
  40   24   42 1
  41   24   43 1
  42   24   44 1
  43   25   26 ar
  44   25   45 1
  45   26   27 ar
  46   26   46 1
  47   27   28 ar
  48   27   31 1
  49   28   29 ar
  50   28   30 1
  51   29   47 1

#	End of record

