#	Name: ASD01811953
#	Creating user name:	WinNT
#	Creation time:	15. 06. 2019 19:27

#	Modifying user name:	WinNT
#	Modification time:	15. 06. 2019 19:27

#	Program:	/corina/corina34_cracker 3.40 0067  02.08.2006

@<TRIPOS>MOLECULE
ASD01811953
  42   44    0    0    0
SMALL
NO_CHARGES


@<TRIPOS>ATOM
   1 C1             0.4177     1.2120     0.8208 C.ar    
   2 C2             0.4138    -0.1703     0.7214 C.ar    
   3 C3             1.5700    -0.8403     0.3896 C.ar    
   4 C4             2.7586    -0.1345     0.1498 C.ar    
   5 C5             2.7596     1.2556     0.2518 C.ar    
   6 C6             1.5774     1.9181     0.5887 C.ar    
   7 C7             3.9552    -0.9142    -0.2035 C.2     
   8 N8             4.8166    -0.5756    -1.0963 N.2     
   9 C9             4.6863     0.6616    -1.8649 C.3     
  10 C10            4.7840     1.8318    -0.9244 C.2     
  11 N11            3.8859     2.0337     0.0370 N.am    
  12 S12            5.9986     2.8594    -1.0837 S.2     
  13 C13            4.1852    -2.1841     0.5240 C.ar    
  14 C14            4.9665    -3.1875    -0.0487 C.ar    
  15 C15            5.1775    -4.3678     0.6341 C.ar    
  16 C16            4.6155    -4.5572     1.8840 C.ar    
  17 C17            3.8392    -3.5658     2.4570 C.ar    
  18 C18            3.6261    -2.3787     1.7868 C.ar    
  19 Cl19          -1.0491    -1.0574     1.0158 Cl      
  20 C20            3.3299     0.6848    -2.5725 C.3     
  21 C21            3.2683    -0.4523    -3.5943 C.3     
  22 C22            1.8645    -0.5189    -4.1991 C.3     
  23 C23            4.2901    -0.1967    -4.7040 C.3     
  24 H24           -0.4910     1.7367     1.0763 H       
  25 H25            1.5620    -1.9176     0.3138 H       
  26 H26            1.5722     2.9952     0.6676 H       
  27 H27            5.4862     0.7189    -2.6031 H       
  28 H28            4.0312     2.7842     0.6340 H       
  29 H29            5.4051    -3.0410    -1.0246 H       
  30 H30            5.7823    -5.1456     0.1916 H       
  31 H31            4.7831    -5.4830     2.4143 H       
  32 H32            3.4028    -3.7196     3.4329 H       
  33 H33            3.0201    -1.6053     2.2353 H       
  34 H34            2.5347     0.5569    -1.8381 H       
  35 H35            3.2028     1.6394    -3.0831 H       
  36 H36            3.4965    -1.3970    -3.1008 H       
  37 H37            1.7955    -1.3806    -4.8632 H       
  38 H38            1.1290    -0.6159    -3.4005 H       
  39 H39            1.6689     0.3922    -4.7646 H       
  40 H40            5.2902    -0.1492    -4.2731 H       
  41 H41            4.2462    -1.0068    -5.4320 H       
  42 H42            4.0619     0.7480    -5.1975 H       
@<TRIPOS>BOND
   1    1    2 ar
   2    1    6 ar
   3    1   24 1
   4    2    3 ar
   5    2   19 1
   6    3    4 ar
   7    3   25 1
   8    4    5 ar
   9    4    7 1
  10    5    6 ar
  11    5   11 1
  12    6   26 1
  13    7    8 2
  14    7   13 1
  15    8    9 1
  16    9   10 1
  17    9   20 1
  18    9   27 1
  19   10   11 am
  20   10   12 2
  21   11   28 1
  22   13   14 ar
  23   13   18 ar
  24   14   15 ar
  25   14   29 1
  26   15   16 ar
  27   15   30 1
  28   16   17 ar
  29   16   31 1
  30   17   18 ar
  31   17   32 1
  32   18   33 1
  33   20   21 1
  34   20   34 1
  35   20   35 1
  36   21   22 1
  37   21   23 1
  38   21   36 1
  39   22   37 1
  40   22   38 1
  41   22   39 1
  42   23   40 1
  43   23   41 1
  44   23   42 1

#	End of record

