#	Name: ASD01152530
#	Creating user name:	WinNT
#	Creation time:	15. 06. 2019 19:06

#	Modifying user name:	WinNT
#	Modification time:	15. 06. 2019 19:06

#	Program:	/corina/corina34_cracker 3.40 0067  02.08.2006

@<TRIPOS>MOLECULE
ASD01152530
  54   56    0    0    0
SMALL
NO_CHARGES


@<TRIPOS>ATOM
   1 C1             0.1165     1.1519    -0.7094 C.2     
   2 N2             0.0220    -0.1484    -0.6274 N.2     
   3 N3            -1.1175    -0.7676    -0.1142 N.am    
   4 C4            -2.2570    -0.0983     0.1271 C.2     
   5 C5            -2.3864     1.3536    -0.2691 C.3     
   6 C6            -1.0011     1.9717    -0.2170 C.2     
   7 C7            -2.9519     1.4554    -1.6871 C.3     
   8 O8            -0.8261     3.0960     0.2054 O.2     
   9 C9            -1.0721    -2.1394     0.1595 C.ar    
  10 O10           -3.1859    -0.6624     0.6649 O.2     
  11 C11           -3.1931     2.9031    -2.0290 C.ar    
  12 C12           -0.0088    -2.6698     0.8764 C.ar    
  13 C13           -2.0947    -2.9707    -0.2815 C.ar    
  14 C14           -2.0509    -4.3247    -0.0119 C.ar    
  15 C15           -0.9901    -4.8574     0.6972 C.ar    
  16 C16            0.0329    -4.0300     1.1458 C.ar    
  17 C17           -2.1925     3.6475    -2.6226 C.ar    
  18 C18           -4.4180     3.4829    -1.7531 C.ar    
  19 C19           -4.6440     4.8108    -2.0655 C.ar    
  20 C20           -3.6457     5.5630    -2.6552 C.ar    
  21 C21           -2.4154     4.9815    -2.9380 C.ar    
  22 Cl22          -0.9393    -6.5597     1.0337 Cl      
  23 Cl23          -3.9303     7.2298    -3.0483 Cl      
  24 N24           -1.4032     5.7389    -3.5339 N.3     
  25 C25           -0.2120     5.7933    -2.6760 C.3     
  26 C26           -1.0694     5.2164    -4.8656 C.3     
  27 N27            1.1035    -4.5686     1.8690 N.am    
  28 C28            1.7669    -3.8052     2.7598 C.2     
  29 O29            1.4972    -2.6278     2.8691 O.2     
  30 C30            2.8438    -4.4146     3.6200 C.3     
  31 O31            1.2264     1.7351    -1.2334 O.3     
  32 C32            2.2665     0.8640    -1.6821 C.3     
  33 H33           -3.0450     1.8695     0.4296 H       
  34 H34           -2.2398     1.0290    -2.3936 H       
  35 H35           -3.8923     0.9072    -1.7434 H       
  36 H36            0.7849    -2.0249     1.2236 H       
  37 H37           -2.9248    -2.5575    -0.8352 H       
  38 H38           -2.8471    -4.9686    -0.3554 H       
  39 H39           -1.2376     3.1926    -2.8410 H       
  40 H40           -5.1999     2.8971    -1.2930 H       
  41 H41           -5.6017     5.2605    -1.8487 H       
  42 H42            0.1607     4.7829    -2.5073 H       
  43 H43            0.5600     6.3886    -3.1635 H       
  44 H44           -0.4728     6.2486    -1.7206 H       
  45 H45           -1.9536     5.2524    -5.5021 H       
  46 H46           -0.2793     5.8240    -5.3067 H       
  47 H47           -0.7278     4.1852    -4.7762 H       
  48 H48            1.3680    -5.4913     1.7289 H       
  49 H49            2.9434    -5.4736     3.3818 H       
  50 H50            3.7904    -3.9088     3.4298 H       
  51 H51            2.5766    -4.3021     4.6708 H       
  52 H52            1.8812     0.2113    -2.4653 H       
  53 H53            3.0919     1.4568    -2.0765 H       
  54 H54            2.6200     0.2597    -0.8466 H       
@<TRIPOS>BOND
   1    1    2 2
   2    1   31 1
   3    1    6 1
   4    2    3 1
   5    3    4 am
   6    3    9 1
   7    4    5 1
   8    4   10 2
   9    5    6 1
  10    5    7 1
  11    5   33 1
  12    6    8 2
  13    7   11 1
  14    7   34 1
  15    7   35 1
  16    9   12 ar
  17    9   13 ar
  18   11   17 ar
  19   11   18 ar
  20   12   16 ar
  21   12   36 1
  22   13   14 ar
  23   13   37 1
  24   14   15 ar
  25   14   38 1
  26   15   16 ar
  27   15   22 1
  28   16   27 1
  29   17   21 ar
  30   17   39 1
  31   18   19 ar
  32   18   40 1
  33   19   20 ar
  34   19   41 1
  35   20   21 ar
  36   20   23 1
  37   21   24 1
  38   24   25 1
  39   24   26 1
  40   25   42 1
  41   25   43 1
  42   25   44 1
  43   26   45 1
  44   26   46 1
  45   26   47 1
  46   27   28 am
  47   27   48 1
  48   28   29 2
  49   28   30 1
  50   30   49 1
  51   30   50 1
  52   30   51 1
  53   31   32 1
  54   32   52 1
  55   32   53 1
  56   32   54 1

#	End of record

