#	Name: ASD01410413
#	Creating user name:	WinNT
#	Creation time:	15. 06. 2019 19:17

#	Modifying user name:	WinNT
#	Modification time:	15. 06. 2019 19:17

#	Program:	/corina/corina34_cracker 3.40 0067  02.08.2006

@<TRIPOS>MOLECULE
ASD01410413
  36   38    0    0    0
SMALL
NO_CHARGES


@<TRIPOS>ATOM
   1 S1            -0.0169     1.7584    -0.0191 S.3     
   2 C2            -0.0012     0.0121     0.2824 C.2     
   3 N3             1.2767    -0.3392     0.4659 N.am    
   4 C4             2.2222     0.5831     0.3986 C.2     
   5 C5             1.7430     1.9417     0.1191 C.2     
   6 S6            -1.3612    -1.0267     0.3305 S.2     
   7 O7             3.4010     0.3246     0.5567 O.2     
   8 N8             1.6108    -1.6744     0.7279 N.am    
   9 S9             1.9444    -2.7054    -0.5243 S.o2    
  10 O10            2.3889    -3.9203     0.0637 O.2     
  11 O11            0.8367    -2.6310    -1.4113 O.2     
  12 C12            3.3243    -2.0398    -1.3946 C.ar    
  13 C13            4.6090    -2.3962    -1.0295 C.ar    
  14 C14            5.6916    -1.8740    -1.7122 C.ar    
  15 C15            5.4894    -0.9957    -2.7604 C.ar    
  16 C16            4.2047    -0.6400    -3.1261 C.ar    
  17 C17            3.1219    -1.1656    -2.4461 C.ar    
  18 C18            2.4768     3.0768    -0.0057 C.2     
  19 C19            1.8474     6.7091    -0.7099 C.ar    
  20 C20            0.5314     6.8364    -0.2881 C.ar    
  21 C21            2.4887     5.4877    -0.6208 C.ar    
  22 C22            1.8045     4.3786    -0.1034 C.ar    
  23 C23            0.4772     4.5182     0.3191 C.ar    
  24 C24           -0.1486     5.7419     0.2246 C.ar    
  25 F25            3.7696     5.3630    -1.0316 F       
  26 F26            2.5010     7.7790    -1.2133 F       
  27 F27           -0.0902     8.0326    -0.3771 F       
  28 H28            1.6467    -1.9948     1.6427 H       
  29 H29            4.7670    -3.0824    -0.2106 H       
  30 H30            6.6954    -2.1518    -1.4265 H       
  31 H31            6.3353    -0.5871    -3.2934 H       
  32 H32            4.0467     0.0465    -3.9448 H       
  33 H33            2.1181    -0.8906    -2.7342 H       
  34 H34            3.5551     3.0225    -0.0332 H       
  35 H35           -0.0556     3.6677     0.7182 H       
  36 H36           -1.1726     5.8492     0.5506 H       
@<TRIPOS>BOND
   1    1    2 1
   2    1    5 1
   3    2    3 am
   4    2    6 2
   5    3    4 am
   6    3    8 1
   7    4    5 1
   8    4    7 2
   9    5   18 2
  10    8    9 am
  11    8   28 1
  12    9   10 2
  13    9   11 2
  14    9   12 1
  15   12   13 ar
  16   12   17 ar
  17   13   14 ar
  18   13   29 1
  19   14   15 ar
  20   14   30 1
  21   15   16 ar
  22   15   31 1
  23   16   17 ar
  24   16   32 1
  25   17   33 1
  26   18   22 1
  27   18   34 1
  28   19   20 ar
  29   19   21 ar
  30   19   26 1
  31   20   24 ar
  32   20   27 1
  33   21   22 ar
  34   21   25 1
  35   22   23 ar
  36   23   24 ar
  37   23   35 1
  38   24   36 1

#	End of record

