#	Name: ASD05430443
#	Creating user name:	WinNT
#	Creation time:	15. 06. 2019 21:00

#	Modifying user name:	WinNT
#	Modification time:	15. 06. 2019 21:00

#	Program:	/corina/corina34_cracker 3.40 0067  02.08.2006

@<TRIPOS>MOLECULE
ASD05430443
  53   57    0    0    0
SMALL
NO_CHARGES


@<TRIPOS>ATOM
   1 C1            -0.0653     1.2303    -0.2947 C.ar    
   2 C2            -0.0160    -0.0181     0.3253 C.ar    
   3 C3            -1.1713    -0.5821     0.8516 C.ar    
   4 C4            -2.3713     0.0887     0.7633 C.ar    
   5 C5            -2.4284     1.3412     0.1429 C.ar    
   6 C6            -1.2643     1.9117    -0.3815 C.ar    
   7 C7            -4.8622     1.3696    -0.0482 C.2     
   8 C8            -3.7095     2.0591     0.0471 C.2     
   9 O9             1.0674     1.7792    -0.8086 O.3     
  10 C10            1.7395    -1.2625     1.5482 C.2     
  11 N11            1.2015    -0.7051     0.4171 N.pl3   
  12 C12            2.9114    -1.8201     1.1888 C.2     
  13 N13            3.0890    -1.6120    -0.1243 N.2     
  14 C14            2.0717    -0.9453    -0.5980 C.2     
  15 C15            3.8594    -2.5516     2.1037 C.3     
  16 C16           -7.1840     0.0782    -1.0150 C.2     
  17 N17           -7.3004     1.3097    -0.4802 N.am    
  18 O18           -5.9586    -0.4472    -1.2008 O.3     
  19 C19           -6.2003     2.0143     0.0147 C.2     
  20 C20           -4.9137    -0.1407    -0.2365 C.3     
  21 C21           -8.4952     2.1286    -0.2892 C.3     
  22 C22           -7.9464     3.4171     0.3591 C.3     
  23 N23           -6.5004     3.1762     0.4799 N.2     
  24 C24           -9.1444     2.4377    -1.6136 C.ar    
  25 C25          -10.5220     2.4204    -1.7282 C.ar    
  26 C26          -11.1185     2.7041    -2.9421 C.ar    
  27 C27          -10.3358     3.0058    -4.0437 C.ar    
  28 C28           -8.9562     3.0228    -3.9277 C.ar    
  29 C29           -8.3621     2.7439    -2.7115 C.ar    
  30 F30          -10.9178     3.2829    -5.2310 F       
  31 C31            0.9434     3.0603    -1.4295 C.3     
  32 O32           -8.1754    -0.5514    -1.3258 O.2     
  33 H33           -1.1286    -1.5491     1.3308 H       
  34 H34           -3.2680    -0.3525     1.1727 H       
  35 H35           -1.3039     2.8786    -0.8609 H       
  36 H36           -3.7251     3.1390     0.0532 H       
  37 H37            1.3085    -1.2522     2.5384 H       
  38 H38            1.9434    -0.6363    -1.6249 H       
  39 H39            3.6047    -3.6113     2.1190 H       
  40 H40            4.8805    -2.4285     1.7426 H       
  41 H41            3.7789    -2.1440     3.1115 H       
  42 H42           -3.9536    -0.4971    -0.6099 H       
  43 H43           -5.1396    -0.6219     0.7151 H       
  44 H44           -9.1991     1.6311     0.3780 H       
  45 H45           -8.1426     4.2784    -0.2795 H       
  46 H46           -8.3864     3.5648     1.3454 H       
  47 H47          -11.1323     2.1847    -0.8689 H       
  48 H48          -12.1947     2.6902    -3.0316 H       
  49 H49           -8.3447     3.2579    -4.7863 H       
  50 H50           -7.2860     2.7571    -2.6207 H       
  51 H51            0.2455     2.9936    -2.2641 H       
  52 H52            0.5721     3.7822    -0.7021 H       
  53 H53            1.9182     3.3823    -1.7959 H       
@<TRIPOS>BOND
   1    1    2 ar
   2    1    9 1
   3    1    6 ar
   4    2    3 ar
   5    2   11 1
   6    3    4 ar
   7    3   33 1
   8    4    5 ar
   9    4   34 1
  10    5    6 ar
  11    5    8 1
  12    6   35 1
  13    7    8 2
  14    7   19 1
  15    7   20 1
  16    8   36 1
  17    9   31 1
  18   10   11 1
  19   10   12 2
  20   10   37 1
  21   11   14 1
  22   12   13 1
  23   12   15 1
  24   13   14 2
  25   14   38 1
  26   15   39 1
  27   15   40 1
  28   15   41 1
  29   16   17 am
  30   16   18 1
  31   16   32 2
  32   17   21 1
  33   17   19 1
  34   18   20 1
  35   19   23 2
  36   20   42 1
  37   20   43 1
  38   21   22 1
  39   21   24 1
  40   21   44 1
  41   22   23 1
  42   22   45 1
  43   22   46 1
  44   24   25 ar
  45   24   29 ar
  46   25   26 ar
  47   25   47 1
  48   26   27 ar
  49   26   48 1
  50   27   28 ar
  51   27   30 1
  52   28   29 ar
  53   28   49 1
  54   29   50 1
  55   31   51 1
  56   31   52 1
  57   31   53 1

#	End of record

