#	Name: ASD05143293
#	Creating user name:	WinNT
#	Creation time:	15. 06. 2019 20:57

#	Modifying user name:	WinNT
#	Modification time:	15. 06. 2019 20:57

#	Program:	/corina/corina34_cracker 3.40 0067  02.08.2006

@<TRIPOS>MOLECULE
ASD05143293
  44   46    0    0    0
SMALL
NO_CHARGES


@<TRIPOS>ATOM
   1 C1            -0.2984     1.4759     0.1199 C.2     
   2 N2            -0.0260     0.2325    -0.2234 N.2     
   3 S3            -1.5279    -0.5550    -0.3302 S.3     
   4 C4            -2.4493     0.8368     0.0948 C.2     
   5 N5            -1.5669     1.7915     0.2921 N.2     
   6 N6            -3.8241     0.9292     0.2094 N.pl3   
   7 C7            -4.4075     2.1021     0.6968 C.ar    
   8 C8            -5.7086     2.4329     0.3396 C.ar    
   9 C9            -6.2820     3.5926     0.8229 C.ar    
  10 C10           -5.5625     4.4241     1.6615 C.ar    
  11 C11           -4.2669     4.0981     2.0187 C.ar    
  12 C12           -3.6896     2.9368     1.5439 C.ar    
  13 C13            1.2129    -0.3123    -0.4485 C.ar    
  14 C14            2.0506     0.2305    -1.4236 C.ar    
  15 C15            1.6437    -1.4095     0.3015 C.ar    
  16 C16            2.8915    -1.9524     0.0694 C.ar    
  17 C17            3.7142    -1.4121    -0.9032 C.ar    
  18 C18            3.2954    -0.3222    -1.6451 C.ar    
  19 C19            0.7776     2.4763     0.3105 C.ar    
  20 C20            0.5473     3.8182     0.0087 C.ar    
  21 C21            2.0230     2.0807     0.7977 C.ar    
  22 C22            3.0212     3.0171     0.9731 C.ar    
  23 C23            2.7886     4.3459     0.6665 C.ar    
  24 C24            1.5534     4.7453     0.1882 C.ar    
  25 C25           -6.1915     5.6888     2.1869 C.3     
  26 Cl26           0.6128    -2.0880     1.5224 Cl      
  27 H27           -4.3837     0.1800    -0.0485 H       
  28 H28           -6.2709     1.7841    -0.3155 H       
  29 H29           -7.2934     3.8505     0.5454 H       
  30 H30           -3.7077     4.7499     2.6735 H       
  31 H31           -2.6779     2.6825     1.8235 H       
  32 H32            1.7252     1.0812    -2.0040 H       
  33 H33            3.2264    -2.8004     0.6484 H       
  34 H34            4.6895    -1.8406    -1.0809 H       
  35 H35            3.9425     0.0943    -2.4029 H       
  36 H36           -0.4164     4.1311    -0.3651 H       
  37 H37            2.2057     1.0437     1.0377 H       
  38 H38            3.9860     2.7120     1.3507 H       
  39 H39            3.5730     5.0752     0.8054 H       
  40 H40            1.3778     5.7840    -0.0497 H       
  41 H41           -6.6980     5.4784     3.1289 H       
  42 H42           -5.4177     6.4389     2.3501 H       
  43 H43           -6.9139     6.0637     1.4619 H       
  44 Br44           9.6895    11.4389     8.1289 Br      
@<TRIPOS>BOND
   1    1    2 2
   2    1   19 1
   3    1    5 1
   4    2    3 1
   5    2   13 1
   6    3    4 1
   7    4    5 2
   8    4    6 1
   9    6    7 1
  10    6   27 1
  11    7    8 ar
  12    7   12 ar
  13    8    9 ar
  14    8   28 1
  15    9   10 ar
  16    9   29 1
  17   10   11 ar
  18   10   25 1
  19   11   12 ar
  20   11   30 1
  21   12   31 1
  22   13   14 ar
  23   13   15 ar
  24   14   18 ar
  25   14   32 1
  26   15   16 ar
  27   15   26 1
  28   16   17 ar
  29   16   33 1
  30   17   18 ar
  31   17   34 1
  32   18   35 1
  33   19   20 ar
  34   19   21 ar
  35   20   24 ar
  36   20   36 1
  37   21   22 ar
  38   21   37 1
  39   22   23 ar
  40   22   38 1
  41   23   24 ar
  42   23   39 1
  43   24   40 1
  44   25   41 1
  45   25   42 1
  46   25   43 1

#	End of record

