#	Name: ASD02500159
#	Creating user name:	WinNT
#	Creation time:	15. 06. 2019 20:22

#	Modifying user name:	WinNT
#	Modification time:	15. 06. 2019 20:22

#	Program:	/corina/corina34_cracker 3.40 0067  02.08.2006

@<TRIPOS>MOLECULE
ASD02500159
  65   69    0    0    0
SMALL
NO_CHARGES


@<TRIPOS>ATOM
   1 N1            -1.9001     0.6881    -1.1950 N.am    
   2 C2            -1.2720    -0.5483    -1.6815 C.3     
   3 C3             0.0013    -0.1802    -2.4533 C.3     
   4 N4             0.7974     0.7433    -1.6328 N.am    
   5 C5             0.1692     1.9796    -1.1463 C.3     
   6 C6            -1.1040     1.6116    -0.3745 C.3     
   7 C7            -3.1816     0.9726    -1.5005 C.2     
   8 O8            -3.7142     1.9590    -1.0296 O.2     
   9 N9            -3.8726     0.1638    -2.3280 N.am    
  10 C10           -5.2085     0.4497    -2.6314 C.ar    
  11 C11           -6.1116    -0.5847    -2.8391 C.ar    
  12 C12           -7.4294    -0.2993    -3.1379 C.ar    
  13 C13           -7.8500     1.0148    -3.2303 C.ar    
  14 C14           -6.9533     2.0470    -3.0240 C.ar    
  15 C15           -5.6352     1.7682    -2.7197 C.ar    
  16 C16           -9.2886     1.3226    -3.5570 C.3     
  17 F17          -10.0266     1.4146    -2.3720 F       
  18 F18           -9.3605     2.5377    -4.2467 F       
  19 F19           -9.8143     0.3013    -4.3557 F       
  20 C20            2.0804     0.4612    -1.3316 C.2     
  21 C21            2.8962     1.4406    -0.5889 C.ar    
  22 C22            3.8479     1.0015     0.3361 C.ar    
  23 C23            4.6073     1.9176     1.0273 C.ar    
  24 C24            4.4285     3.2804     0.8062 C.ar    
  25 C25            3.4812     3.7209    -0.1140 C.ar    
  26 C26            2.7231     2.8096    -0.8129 C.ar    
  27 O27            2.5655    -0.6006    -1.6719 O.2     
  28 S28            5.9390     5.4450     0.6992 S.o2    
  29 O29            4.9435     6.0422    -0.1203 O.2     
  30 O30            6.6823     6.1679     1.6709 O.2     
  31 N31            5.1974     4.2036     1.5062 N.am    
  32 N32            8.4949     4.0487     1.4353 N.ar    
  33 C33            9.5678     3.4718     1.9193 C.ar    
  34 C34           10.5255     2.8913     1.0903 C.ar    
  35 C35           10.3580     2.9143    -0.2650 C.ar    
  36 C36            9.2044     3.5344    -0.7812 C.ar    
  37 C37            8.9643     3.5974    -2.1630 C.ar    
  38 C38            7.8365     4.2064    -2.6229 C.ar    
  39 C39            6.9164     4.7676    -1.7402 C.ar    
  40 C40            7.1180     4.7253    -0.3948 C.ar    
  41 C41            8.2705     4.1058     0.1186 C.ar    
  42 H42           -1.0155    -1.1858    -0.8354 H       
  43 H43           -1.9615    -1.0733    -2.3425 H       
  44 H44            0.5799    -1.0815    -2.6555 H       
  45 H45           -0.2672     0.3035    -3.3925 H       
  46 H46            0.8588     2.5047    -0.4853 H       
  47 H47           -0.0873     2.6171    -1.9924 H       
  48 H48           -1.6827     2.5129    -0.1723 H       
  49 H49           -0.8355     1.1279     0.5647 H       
  50 H50           -3.4440    -0.6164    -2.7133 H       
  51 H51           -5.7836    -1.6112    -2.7675 H       
  52 H52           -8.1321    -1.1032    -3.2999 H       
  53 H53           -7.2848     3.0723    -3.0969 H       
  54 H54           -4.9364     2.5748    -2.5543 H       
  55 H55            3.9868    -0.0556     0.5083 H       
  56 H56            5.3425     1.5790     1.7423 H       
  57 H57            3.3443     4.7788    -0.2828 H       
  58 H58            1.9919     3.1518    -1.5303 H       
  59 H59            5.2994     4.1204     2.4672 H       
  60 H60            9.7135     3.4460     2.9891 H       
  61 H61           11.3996     2.4238     1.5190 H       
  62 H62           11.0905     2.4696    -0.9224 H       
  63 H63            9.6702     3.1657    -2.8571 H       
  64 H64            7.6527     4.2544    -3.6861 H       
  65 H65            6.0298     5.2457    -2.1297 H       
@<TRIPOS>BOND
   1    1    2 1
   2    1    6 1
   3    1    7 am
   4    2    3 1
   5    2   42 1
   6    2   43 1
   7    3    4 1
   8    3   44 1
   9    3   45 1
  10    4    5 1
  11    4   20 am
  12    5    6 1
  13    5   46 1
  14    5   47 1
  15    6   48 1
  16    6   49 1
  17    7    8 2
  18    7    9 am
  19    9   10 1
  20    9   50 1
  21   10   11 ar
  22   10   15 ar
  23   11   12 ar
  24   11   51 1
  25   12   13 ar
  26   12   52 1
  27   13   14 ar
  28   13   16 1
  29   14   15 ar
  30   14   53 1
  31   15   54 1
  32   16   17 1
  33   16   18 1
  34   16   19 1
  35   20   21 1
  36   20   27 2
  37   21   22 ar
  38   21   26 ar
  39   22   23 ar
  40   22   55 1
  41   23   24 ar
  42   23   56 1
  43   24   25 ar
  44   24   31 1
  45   25   26 ar
  46   25   57 1
  47   26   58 1
  48   28   29 2
  49   28   30 2
  50   28   31 am
  51   28   40 1
  52   31   59 1
  53   32   33 ar
  54   32   41 ar
  55   33   34 ar
  56   33   60 1
  57   34   35 ar
  58   34   61 1
  59   35   36 ar
  60   35   62 1
  61   36   37 ar
  62   36   41 ar
  63   37   38 ar
  64   37   63 1
  65   38   39 ar
  66   38   64 1
  67   39   40 ar
  68   39   65 1
  69   40   41 ar

#	End of record

