#	Name: ASD01000118
#	Creating user name:	WinNT
#	Creation time:	15. 06. 2019 18:54

#	Modifying user name:	WinNT
#	Modification time:	15. 06. 2019 18:54

#	Program:	/corina/corina34_cracker 3.40 0067  02.08.2006

@<TRIPOS>MOLECULE
ASD01000118
  38   41    0    0    0
SMALL
NO_CHARGES


@<TRIPOS>ATOM
   1 C1            -0.0162     1.3464     0.0094 C.2     
   2 C2             0.0021    -0.0041     0.0020 C.2     
   3 C3             1.3412    -0.4103    -0.0204 C.2     
   4 N4             2.1053     0.6579    -0.0250 N.2     
   5 N5             1.2894     1.7823    -0.0007 N.pl3   
   6 C6             1.8261    -1.8371    -0.0363 C.3     
   7 C7             1.6400     3.2042     0.0214 C.3     
   8 N8             0.5287     3.9818    -0.5442 N.pl3   
   9 C9            -0.7967     3.6547    -0.2614 C.ar    
  10 C10           -1.1297     2.3142     0.0178 C.ar    
  11 C11           -1.7932     4.6150    -0.2499 C.ar    
  12 C12           -3.0983     4.2501     0.0251 C.ar    
  13 C13           -3.4230     2.9306     0.2898 C.ar    
  14 C14           -2.4405     1.9582     0.2875 C.ar    
  15 C15           -4.8524     2.5534     0.5825 C.3     
  16 C16            1.8881     3.6400     1.4425 C.ar    
  17 C17            3.1366     3.4605     2.0141 C.ar    
  18 C18            0.8716     4.2241     2.1738 C.ar    
  19 C19            1.0993     4.6250     3.4773 C.ar    
  20 C20            2.3437     4.4419     4.0505 C.ar    
  21 C21            3.3633     3.8618     3.3195 C.ar    
  22 F22            4.1326     2.8938     1.2985 F       
  23 H23           -0.8609    -0.6533     0.0120 H       
  24 H24            1.9276    -2.1749    -1.0676 H       
  25 H25            2.7932    -1.8977     0.4628 H       
  26 H26            1.1081    -2.4706     0.4845 H       
  27 H27            2.5387     3.3673    -0.5733 H       
  28 H28            0.7205     4.7353    -1.1242 H       
  29 H29           -1.5519     5.6475    -0.4551 H       
  30 H30           -3.8727     5.0028     0.0339 H       
  31 H31           -2.6932     0.9287     0.4939 H       
  32 H32           -5.3597     2.3015    -0.3488 H       
  33 H33           -4.8714     1.6926     1.2509 H       
  34 H34           -5.3599     3.3932     1.0571 H       
  35 H35           -0.1010     4.3680     1.7268 H       
  36 H36            0.3042     5.0817     4.0480 H       
  37 H37            2.5204     4.7557     5.0687 H       
  38 H38            4.3354     3.7185     3.7676 H       
@<TRIPOS>BOND
   1    1    2 2
   2    1    5 1
   3    1   10 1
   4    2    3 1
   5    2   23 1
   6    3    4 2
   7    3    6 1
   8    4    5 1
   9    5    7 1
  10    6   24 1
  11    6   25 1
  12    6   26 1
  13    7    8 1
  14    7   16 1
  15    7   27 1
  16    8    9 1
  17    8   28 1
  18    9   10 ar
  19    9   11 ar
  20   10   14 ar
  21   11   12 ar
  22   11   29 1
  23   12   13 ar
  24   12   30 1
  25   13   14 ar
  26   13   15 1
  27   14   31 1
  28   15   32 1
  29   15   33 1
  30   15   34 1
  31   16   17 ar
  32   16   18 ar
  33   17   22 1
  34   17   21 ar
  35   18   19 ar
  36   18   35 1
  37   19   20 ar
  38   19   36 1
  39   20   21 ar
  40   20   37 1
  41   21   38 1

#	End of record

