#	Name: ASD00431072
#	Creating user name:	WinNT
#	Creation time:	15. 06. 2019 18:35

#	Modifying user name:	WinNT
#	Modification time:	15. 06. 2019 18:35

#	Program:	/corina/corina34_cracker 3.40 0067  02.08.2006

@<TRIPOS>MOLECULE
ASD00431072
  52   54    0    0    0
SMALL
NO_CHARGES


@<TRIPOS>ATOM
   1 C1             0.0827     1.5224     0.3853 C.2     
   2 C2             0.1098     0.0157     0.3968 C.3     
   3 O3             1.1219     2.1477     0.3940 O.2     
   4 N4            -1.0962     2.1750     0.3598 N.am    
   5 C5            -1.1225     3.6397     0.3487 C.3     
   6 C6            -0.9807     4.1415    -1.0897 C.3     
   7 C7            -2.4294     4.1230     0.9227 C.ar    
   8 C8            -2.4488     5.2255     1.7585 C.ar    
   9 C9            -3.6417     5.6734     2.2870 C.ar    
  10 C10           -4.8311     5.0117     1.9768 C.ar    
  11 C11           -4.8045     3.9001     1.1330 C.ar    
  12 C12           -3.6053     3.4658     0.6070 C.ar    
  13 S13           -6.3257     6.8648     3.6154 S.3     
  14 C14           -8.0100     6.5780     3.6682 C.2     
  15 N15           -8.3146     5.5492     2.9400 N.2     
  16 C16           -7.3261     4.9390     2.3210 C.2     
  17 C17           -6.1128     5.4857     2.5398 C.2     
  18 O18           -8.8997     7.3194     4.3710 O.3     
  19 C19          -10.2211     7.0307     4.2332 C.ar    
  20 C20          -10.7157     5.8142     4.6807 C.ar    
  21 C21          -12.0581     5.5210     4.5406 C.ar    
  22 C22          -12.9116     6.4425     3.9522 C.ar    
  23 C23          -12.4172     7.6588     3.5047 C.ar    
  24 C24          -11.0760     7.9547     3.6502 C.ar    
  25 O25          -14.2330     6.1533     3.8135 O.3     
  26 C26          -14.6490     4.8333     4.1692 C.3     
  27 C27          -15.1237     4.8227     5.6237 C.3     
  28 C28          -15.7957     4.3963     3.2554 C.3     
  29 H29            0.1032    -0.3400     1.4271 H       
  30 H30           -0.7669    -0.3674    -0.1255 H       
  31 H31            1.0127    -0.3353    -0.1030 H       
  32 H32           -1.9273     1.6749     0.3488 H       
  33 H33           -0.2979     4.0225     0.9500 H       
  34 H34           -1.8053     3.7587    -1.6910 H       
  35 H35           -1.0003     5.2313    -1.0980 H       
  36 H36           -0.0354     3.7919    -1.5049 H       
  37 H37           -1.5278     5.7363     1.9980 H       
  38 H38           -3.6554     6.5339     2.9396 H       
  39 H39           -5.7211     3.3834     0.8893 H       
  40 H40           -3.5838     2.6083    -0.0493 H       
  41 H41           -7.4740     4.0739     1.6917 H       
  42 H42          -10.0510     5.0964     5.1383 H       
  43 H43          -12.4431     4.5740     4.8890 H       
  44 H44          -13.0818     8.3760     3.0462 H       
  45 H45          -10.6919     8.9036     3.3059 H       
  46 H46          -13.8113     4.1452     4.0554 H       
  47 H47          -15.9614     5.5107     5.7375 H       
  48 H48          -15.4410     3.8158     5.8950 H       
  49 H49          -14.3068     5.1340     6.2747 H       
  50 H50          -15.4576     4.4038     2.2192 H       
  51 H51          -16.1130     3.3894     3.5267 H       
  52 H52          -16.6334     5.0843     3.3692 H       
@<TRIPOS>BOND
   1    1    2 1
   2    1    3 2
   3    1    4 am
   4    2   29 1
   5    2   30 1
   6    2   31 1
   7    4    5 1
   8    4   32 1
   9    5    6 1
  10    5    7 1
  11    5   33 1
  12    6   34 1
  13    6   35 1
  14    6   36 1
  15    7    8 ar
  16    7   12 ar
  17    8    9 ar
  18    8   37 1
  19    9   10 ar
  20    9   38 1
  21   10   11 ar
  22   10   17 1
  23   11   12 ar
  24   11   39 1
  25   12   40 1
  26   13   14 1
  27   13   17 1
  28   14   15 2
  29   14   18 1
  30   15   16 1
  31   16   17 2
  32   16   41 1
  33   18   19 1
  34   19   20 ar
  35   19   24 ar
  36   20   21 ar
  37   20   42 1
  38   21   22 ar
  39   21   43 1
  40   22   23 ar
  41   22   25 1
  42   23   24 ar
  43   23   44 1
  44   24   45 1
  45   25   26 1
  46   26   27 1
  47   26   28 1
  48   26   46 1
  49   27   47 1
  50   27   48 1
  51   27   49 1
  52   28   50 1
  53   28   51 1
  54   28   52 1

#	End of record

