#	Name: ASD01816847
#	Creating user name:	WinNT
#	Creation time:	15. 06. 2019 19:36

#	Modifying user name:	WinNT
#	Modification time:	15. 06. 2019 19:36

#	Program:	/corina/corina34_cracker 3.40 0067  02.08.2006

@<TRIPOS>MOLECULE
ASD01816847
  49   52    0    0    0
SMALL
NO_CHARGES


@<TRIPOS>ATOM
   1 C1            -0.0168     1.3897     0.0097 C.ar    
   2 C2             0.0021    -0.0041     0.0020 C.ar    
   3 C3             1.1796    -0.6877    -0.0129 C.ar    
   4 C4             2.3927     0.0187    -0.0207 C.ar    
   5 C5             2.3768     1.4381    -0.0130 C.ar    
   6 C6             1.1385     2.1078     0.0025 C.ar    
   7 C7             3.6297    -0.6529    -0.0357 C.ar    
   8 C8             4.7711     0.0956    -0.0422 C.ar    
   9 C9             4.6871     1.4959    -0.0340 C.ar    
  10 N10            3.5238     2.1168    -0.0199 N.ar    
  11 C11            5.9353     2.2963    -0.0412 C.2     
  12 N12            5.8725     3.6426    -0.0335 N.am    
  13 O13            7.0146     1.7386    -0.0541 O.2     
  14 C14            7.1057     4.4335    -0.0406 C.3     
  15 C15            7.5916     4.6119    -1.4823 C.3     
  16 C16            6.8338     5.8121     0.5692 C.3     
  17 C17            8.1068     6.6584     0.4857 C.3     
  18 O18            8.5218     6.7590    -0.8780 O.3     
  19 C19            8.8354     5.5045    -1.4865 C.3     
  20 O20            6.4492     5.6617     1.9372 O.3     
  21 C21            3.6922    -2.1586    -0.0438 C.3     
  22 C22            3.6025    -2.6727     1.3699 C.ar    
  23 C23            4.6753    -3.3393     1.9321 C.ar    
  24 C24            2.4497    -2.4727     2.1061 C.ar    
  25 C25            2.3671    -2.9435     3.4029 C.ar    
  26 C26            3.4383    -3.6156     3.9641 C.ar    
  27 C27            4.5937    -3.8110     3.2286 C.ar    
  28 Cl28           3.3354    -4.2069     5.5931 Cl      
  29 F29            2.6249    -2.6656    -0.7929 F       
  30 H30           -0.9643     1.9080     0.0170 H       
  31 H31           -0.9302    -0.5493     0.0084 H       
  32 H32            1.1803    -1.7677    -0.0184 H       
  33 H33            1.1059     3.1873     0.0090 H       
  34 H34            5.7363    -0.3889    -0.0533 H       
  35 H35            5.0108     4.0879    -0.0231 H       
  36 H36            7.8712     3.9204     0.5414 H       
  37 H37            7.8402     3.6388    -1.9059 H       
  38 H38            6.8061     5.0788    -2.0763 H       
  39 H39            6.0329     6.3033     0.0166 H       
  40 H40            7.9072     7.6551     0.8793 H       
  41 H41            8.8957     6.1872     1.0719 H       
  42 H42            9.6338     5.0182    -0.9261 H       
  43 H43            9.1606     5.6699    -2.5136 H       
  44 H44            6.2613     6.4969     2.3870 H       
  45 H45            4.6337    -2.4808    -0.4886 H       
  46 H46            5.5772    -3.4917     1.3578 H       
  47 H47            1.6135    -1.9480     1.6679 H       
  48 H48            1.4666    -2.7866     3.9782 H       
  49 H49            5.4301    -4.3359     3.6660 H       
@<TRIPOS>BOND
   1    1    2 ar
   2    1    6 ar
   3    1   30 1
   4    2    3 ar
   5    2   31 1
   6    3    4 ar
   7    3   32 1
   8    4    5 ar
   9    4    7 ar
  10    5    6 ar
  11    5   10 ar
  12    6   33 1
  13    7    8 ar
  14    7   21 1
  15    8    9 ar
  16    8   34 1
  17    9   10 ar
  18    9   11 1
  19   11   12 am
  20   11   13 2
  21   12   14 1
  22   12   35 1
  23   14   15 1
  24   14   16 1
  25   14   36 1
  26   15   19 1
  27   15   37 1
  28   15   38 1
  29   16   17 1
  30   16   20 1
  31   16   39 1
  32   17   18 1
  33   17   40 1
  34   17   41 1
  35   18   19 1
  36   19   42 1
  37   19   43 1
  38   20   44 1
  39   21   22 1
  40   21   29 1
  41   21   45 1
  42   22   23 ar
  43   22   24 ar
  44   23   27 ar
  45   23   46 1
  46   24   25 ar
  47   24   47 1
  48   25   26 ar
  49   25   48 1
  50   26   27 ar
  51   26   28 1
  52   27   49 1

#	End of record

