#	Name: ASD01141119
#	Creating user name:	WinNT
#	Creation time:	15. 06. 2019 19:01

#	Modifying user name:	WinNT
#	Modification time:	15. 06. 2019 19:01

#	Program:	/corina/corina34_cracker 3.40 0067  02.08.2006

@<TRIPOS>MOLECULE
ASD01141119
  68   73    0    0    0
SMALL
NO_CHARGES


@<TRIPOS>ATOM
   1 C1             0.0662     1.3466     0.1631 C.3     
   2 C2             0.3037    -0.1687     0.2777 C.3     
   3 C3             1.4220     2.0038    -0.0008 C.3     
   4 C4             1.2368    -0.5004     1.4372 C.3     
   5 C5             2.2212     1.7510     1.3078 C.3     
   6 C6             1.4472     3.5156    -0.1374 C.3     
   7 C7             2.1597     1.3743    -1.1841 C.3     
   8 C8             2.5608     0.2729     1.3377 C.3     
   9 C9             1.5348    -2.0006     1.4541 C.3     
  10 H10            0.7440    -0.2382     2.3734 H       
  11 H11            1.6232     2.0205     2.1784 H       
  12 C12            3.4088     2.7057     1.1385 C.3     
  13 C13            2.7485     3.9837     0.5486 C.3     
  14 C14            3.4231    -0.0525     2.5581 C.3     
  15 H15            3.0802    -0.0036     0.4202 H       
  16 C16            2.4051    -2.3332     2.6678 C.3     
  17 C17            0.2219    -2.7814     1.5377 C.3     
  18 C18            3.7188    -1.5535     2.5857 C.3     
  19 C19            2.7035    -3.8338     2.6853 C.3     
  20 H20            1.8763    -2.0574     3.5803 H       
  21 C21            0.5209    -4.2818     1.5548 C.3     
  22 C22            1.3902    -4.6142     2.7692 C.3     
  23 O23            0.6965    -4.2522     3.9650 O.3     
  24 H24           -0.1470    -4.7096     4.0841 H       
  25 H25           -0.6521    -0.6684     0.4351 H       
  26 C26            2.2774    -2.3874     0.1735 C.3     
  27 O27            0.9419     4.1922    -1.2819 O.3     
  28 C28            0.1849     4.3664    -0.0807 C.3     
  29 O29            4.6513     0.6739     2.4812 O.3     
  30 C30            6.4961     1.7670     3.5539 C.ar    
  31 C31            6.4764     3.1460     3.4605 C.ar    
  32 C32            7.6565     3.8437     3.2831 C.ar    
  33 C33            8.8563     3.1625     3.1995 C.ar    
  34 C34            8.8762     1.7835     3.2937 C.ar    
  35 C35            7.6960     1.0856     3.4697 C.ar    
  36 C36            5.2104     1.0067     3.7535 C.3     
  37 H37           -0.5567     1.5597    -0.7057 H       
  38 H38           -0.4180     1.7155     1.0672 H       
  39 H39            0.7456    -0.5314    -0.6504 H       
  40 H40            1.6243     1.5982    -2.1068 H       
  41 H41            3.1689     1.7821    -1.2416 H       
  42 H42            2.2116     0.2942    -1.0470 H       
  43 H43            3.8713     2.9204     2.1019 H       
  44 H44            4.1391     2.2929     0.4426 H       
  45 H45            3.4124     4.4457    -0.1820 H       
  46 H46            2.5188     4.6896     1.3467 H       
  47 H47            2.8897     0.2298     3.4658 H       
  48 H48           -0.3072    -2.5059     2.4501 H       
  49 H49           -0.3976    -2.5442     0.6728 H       
  50 H50            4.2520    -1.8353     1.6778 H       
  51 H51            4.3340    -1.7864     3.4548 H       
  52 H52            3.2324    -4.1097     1.7731 H       
  53 H53            3.3229    -4.0710     3.5503 H       
  54 H54           -0.4145    -4.8381     1.6143 H       
  55 H55            1.0503    -4.5572     0.6426 H       
  56 H56            1.6030    -5.6832     2.7821 H       
  57 H57            3.2132    -1.8316     0.1142 H       
  58 H58            2.4898    -3.4564     0.1855 H       
  59 H59            1.6581    -2.1497    -0.6914 H       
  60 H60           -0.7724     3.8508    -0.0040 H       
  61 H61            0.2447     5.3315     0.4223 H       
  62 H62            5.5389     3.6783     3.5259 H       
  63 H63            7.6409     4.9211     3.2095 H       
  64 H64            9.7782     3.7075     3.0601 H       
  65 H65            9.8136     1.2511     3.2276 H       
  66 H66            7.7114     0.0082     3.5426 H       
  67 H67            4.5055     1.6248     4.3096 H       
  68 H68            5.4117     0.0928     4.3122 H       
@<TRIPOS>BOND
   1    1    2 1
   2    1    3 1
   3    1   37 1
   4    1   38 1
   5    2    4 1
   6    2   25 1
   7    2   39 1
   8    3    5 1
   9    3    7 1
  10    3    6 1
  11    4    8 1
  12    4   10 1
  13    4    9 1
  14    5    8 1
  15    5   11 1
  16    5   12 1
  17    6   13 1
  18    6   27 1
  19    6   28 1
  20    7   40 1
  21    7   41 1
  22    7   42 1
  23    8   15 1
  24    8   14 1
  25    9   17 1
  26    9   26 1
  27    9   16 1
  28   12   13 1
  29   12   43 1
  30   12   44 1
  31   13   45 1
  32   13   46 1
  33   14   18 1
  34   14   29 1
  35   14   47 1
  36   16   19 1
  37   16   20 1
  38   16   18 1
  39   17   21 1
  40   17   48 1
  41   17   49 1
  42   18   50 1
  43   18   51 1
  44   19   22 1
  45   19   52 1
  46   19   53 1
  47   21   22 1
  48   21   54 1
  49   21   55 1
  50   22   23 1
  51   22   56 1
  52   23   24 1
  53   26   57 1
  54   26   58 1
  55   26   59 1
  56   27   28 1
  57   28   60 1
  58   28   61 1
  59   29   36 1
  60   30   31 ar
  61   30   35 ar
  62   30   36 1
  63   31   32 ar
  64   31   62 1
  65   32   33 ar
  66   32   63 1
  67   33   34 ar
  68   33   64 1
  69   34   35 ar
  70   34   65 1
  71   35   66 1
  72   36   67 1
  73   36   68 1

#	End of record

