#	Name: ASD00990098
#	Creating user name:	WinNT
#	Creation time:	15. 06. 2019 18:54

#	Modifying user name:	WinNT
#	Modification time:	15. 06. 2019 18:54

#	Program:	/corina/corina34_cracker 3.40 0067  02.08.2006

@<TRIPOS>MOLECULE
ASD00990098
  36   37    0    0    0
SMALL
NO_CHARGES


@<TRIPOS>ATOM
   1 C1            -0.0189     1.5389     0.0105 C.3     
   2 C2             0.0021    -0.0041     0.0020 C.3     
   3 N3             1.3058    -0.4202    -0.5467 N.3     
   4 C4             2.0771     0.7912    -0.8979 C.3     
   5 C5             1.4877     1.9090    -0.0019 C.3     
   6 C6             3.5388     0.5895    -0.5918 C.2     
   7 N7             4.4630     1.3884    -1.1613 N.am    
   8 O8             3.8836    -0.2916     0.1668 O.2     
   9 C9             5.8840     1.1923    -0.8638 C.3     
  10 C10            6.4815     0.1580    -1.7920 C.2     
  11 C11            6.6832     2.4808    -1.1671 C.3     
  12 C12            7.1625     2.2212    -2.6125 C.3     
  13 N13            7.1960     0.7612    -2.7577 N.am    
  14 O14            6.3372    -1.0411    -1.6809 O.2     
  15 C15            7.9157     0.0523    -3.8187 C.3     
  16 C16            9.3200    -0.2460    -3.3605 C.2     
  17 O17            9.6839     0.0996    -2.2564 O.2     
  18 N18           10.1716    -0.8967    -4.1777 N.am    
  19 H19           -0.5172     1.9225    -0.8798 H       
  20 H20           -0.5001     1.9129     0.9142 H       
  21 H21           -0.1103    -0.3820     1.0182 H       
  22 H22           -0.8031    -0.3824    -0.6278 H       
  23 H23            1.8107    -0.9913     0.1144 H       
  24 H24            1.9393     1.0367    -1.9509 H       
  25 H25            1.6450     2.8909    -0.4483 H       
  26 H26            1.9085     1.8666     1.0027 H       
  27 H27            4.1873     2.0931    -1.7681 H       
  28 H28            6.0175     0.8941     0.1761 H       
  29 H29            6.0393     3.3591    -1.1215 H       
  30 H30            7.5296     2.5838    -0.4880 H       
  31 H31            6.4619     2.6553    -3.3259 H       
  32 H32            8.1589     2.6379    -2.7601 H       
  33 H33            7.4013    -0.8817    -4.0452 H       
  34 H34            7.9497     0.6745    -4.7130 H       
  35 H35            9.8805    -1.1731    -5.0607 H       
  36 H36           11.0755    -1.0887    -3.8827 H       
@<TRIPOS>BOND
   1    1    2 1
   2    1    5 1
   3    1   19 1
   4    1   20 1
   5    2    3 1
   6    2   21 1
   7    2   22 1
   8    3    4 1
   9    3   23 1
  10    4    5 1
  11    4    6 1
  12    4   24 1
  13    5   25 1
  14    5   26 1
  15    6    7 am
  16    6    8 2
  17    7    9 1
  18    7   27 1
  19    9   10 1
  20    9   11 1
  21    9   28 1
  22   10   14 2
  23   10   13 am
  24   11   12 1
  25   11   29 1
  26   11   30 1
  27   12   13 1
  28   12   31 1
  29   12   32 1
  30   13   15 1
  31   15   16 1
  32   15   33 1
  33   15   34 1
  34   16   17 2
  35   16   18 am
  36   18   35 1
  37   18   36 1

#	End of record

