#	Name: ASD00170713
#	Creating user name:	WinNT
#	Creation time:	15. 06. 2019 18:32

#	Modifying user name:	WinNT
#	Modification time:	15. 06. 2019 18:32

#	Program:	/corina/corina34_cracker 3.40 0067  02.08.2006

@<TRIPOS>MOLECULE
ASD00170713
  41   43    0    0    0
SMALL
NO_CHARGES


@<TRIPOS>ATOM
   1 C1            -0.0144     1.2093     0.0087 C.2     
   2 O2             0.0021    -0.0041     0.0020 O.2     
   3 C3             1.2443     1.9590     0.0007 C.ar    
   4 C4             1.2319     3.3714     0.0084 C.ar    
   5 C5             2.4403     4.0687     0.0011 C.ar    
   6 C6             3.6339     3.3801    -0.0135 C.ar    
   7 C7             3.6479     1.9926    -0.0216 C.ar    
   8 C8             2.4693     1.2814    -0.0088 C.ar    
   9 C9            -0.9296     4.0473     1.0737 C.2     
  10 C10           -0.0490     4.1036     0.0236 C.2     
  11 C11           -0.4722     4.9148    -1.0275 C.2     
  12 C12           -1.6628     5.5035    -0.8418 C.2     
  13 S13           -2.3303     5.0488     0.7188 S.3     
  14 C14           -2.3190     6.4058    -1.8107 C.ar    
  15 C15           -3.5634     6.9656    -1.5138 C.ar    
  16 C16           -4.1728     7.8068    -2.4198 C.ar    
  17 C17           -3.5501     8.0980    -3.6280 C.ar    
  18 C18           -2.3113     7.5425    -3.9269 C.ar    
  19 C19           -1.6937     6.7051    -3.0229 C.ar    
  20 N20           -4.1708     8.9508    -4.5443 N.pl3   
  21 C21           -5.4765     9.5368    -4.2313 C.3     
  22 C22           -3.5160     9.2588    -5.8181 C.3     
  23 N23           -0.7463     3.3101     2.2326 N.pl3   
  24 H24           -0.9569     1.7365     0.0160 H       
  25 H25            2.4403     5.1487     0.0065 H       
  26 H26            4.5663     3.9250    -0.0191 H       
  27 H27            4.5910     1.4664    -0.0337 H       
  28 H28            2.4896     0.2016    -0.0106 H       
  29 H29            0.1139     5.0587    -1.9231 H       
  30 H30           -4.0479     6.7394    -0.5754 H       
  31 H31           -5.1354     8.2398    -2.1909 H       
  32 H32           -1.8304     7.7706    -4.8666 H       
  33 H33           -0.7291     6.2776    -3.2536 H       
  34 H34           -5.3343    10.4884    -3.7191 H       
  35 H35           -6.0320     9.7006    -5.1547 H       
  36 H36           -6.0347     8.8573    -3.5872 H       
  37 H37           -3.8197     8.5290    -6.5686 H       
  38 H38           -3.8069    10.2575    -6.1440 H       
  39 H39           -2.4344     9.2192    -5.6896 H       
  40 H40            0.0569     2.7784     2.3473 H       
  41 H41           -1.4212     3.3257     2.9292 H       
@<TRIPOS>BOND
   1    1    2 2
   2    1    3 1
   3    1   24 1
   4    3    4 ar
   5    3    8 ar
   6    4    5 ar
   7    4   10 1
   8    5    6 ar
   9    5   25 1
  10    6    7 ar
  11    6   26 1
  12    7    8 ar
  13    7   27 1
  14    8   28 1
  15    9   10 2
  16    9   13 1
  17    9   23 1
  18   10   11 1
  19   11   12 2
  20   11   29 1
  21   12   13 1
  22   12   14 1
  23   14   15 ar
  24   14   19 ar
  25   15   16 ar
  26   15   30 1
  27   16   17 ar
  28   16   31 1
  29   17   18 ar
  30   17   20 1
  31   18   19 ar
  32   18   32 1
  33   19   33 1
  34   20   21 1
  35   20   22 1
  36   21   34 1
  37   21   35 1
  38   21   36 1
  39   22   37 1
  40   22   38 1
  41   22   39 1
  42   23   40 1
  43   23   41 1

#	End of record

