#	Name: ASD03331703
#	Creating user name:	WinNT
#	Creation time:	15. 06. 2019 20:39

#	Modifying user name:	WinNT
#	Modification time:	15. 06. 2019 20:39

#	Program:	/corina/corina34_cracker 3.40 0067  02.08.2006

@<TRIPOS>MOLECULE
ASD03331703
  43   46    0    0    0
SMALL
NO_CHARGES


@<TRIPOS>ATOM
   1 C1             0.4090     1.4256    -0.1750 C.ar    
   2 C2             0.6400     0.0894    -0.0080 C.ar    
   3 C3             1.8532    -0.3587     0.4960 C.ar    
   4 C4             2.8462     0.5341     0.8370 C.ar    
   5 C5             2.6341     1.8990     0.6752 C.ar    
   6 C6             1.4018     2.3492     0.1636 C.ar    
   7 N7             3.4101     3.0108     0.9188 N.pl3   
   8 C8             2.7142     4.1481     0.5796 C.2     
   9 C9             1.4866     3.8079     0.1148 C.2     
  10 C10            0.4142     4.7533    -0.3620 C.3     
  11 C11            0.8352     5.3718    -1.6701 C.ar    
  12 C12           -0.8933     3.9837    -0.5592 C.3     
  13 N13           -1.3666     3.4855     0.7347 N.pl3   
  14 O14           -1.3294     4.2067     1.7155 O.2     
  15 O15           -1.7974     2.3502     0.8296 O.2     
  16 C16            0.6091     4.6914    -2.8514 C.ar    
  17 C17            1.0003     5.2693    -4.0497 C.ar    
  18 C18            1.6069     6.5153    -4.0142 C.ar    
  19 C19            1.8002     7.1358    -2.7943 C.ar    
  20 N20            1.4104     6.5586    -1.6747 N.ar    
  21 C21            3.2264     5.5300     0.7032 C.ar    
  22 C22            2.4468     6.5145     1.3119 C.ar    
  23 C23            4.4937     5.8537     0.2169 C.ar    
  24 C24            4.9659     7.1446     0.3358 C.ar    
  25 C25            4.1858     8.1172     0.9356 C.ar    
  26 C26            2.9306     7.8016     1.4245 C.ar    
  27 H27           -0.5359     1.7668    -0.5716 H       
  28 H28           -0.1275    -0.6238    -0.2698 H       
  29 H29            2.0206    -1.4181     0.6227 H       
  30 H30            3.7862     0.1748     1.2290 H       
  31 H31            4.3116     2.9943     1.2763 H       
  32 H32            0.2657     5.5380     0.3798 H       
  33 H33           -1.6437     4.6466    -0.9898 H       
  34 H34           -0.7223     3.1430    -1.2316 H       
  35 H35            0.1339     3.7215    -2.8414 H       
  36 H36            0.8366     4.7606    -4.9882 H       
  37 H37            1.9247     6.9950    -4.9282 H       
  38 H38            2.2724     8.1065    -2.7581 H       
  39 H39            1.4667     6.2694     1.6936 H       
  40 H40            5.1037     5.0953    -0.2511 H       
  41 H41            5.9466     7.3963    -0.0398 H       
  42 H42            4.5601     9.1262     1.0265 H       
  43 H43            2.3281     8.5645     1.8950 H       
@<TRIPOS>BOND
   1    1    2 ar
   2    1    6 ar
   3    1   27 1
   4    2    3 ar
   5    2   28 1
   6    3    4 ar
   7    3   29 1
   8    4    5 ar
   9    4   30 1
  10    5    7 1
  11    5    6 ar
  12    6    9 1
  13    7    8 1
  14    7   31 1
  15    8    9 2
  16    8   21 1
  17    9   10 1
  18   10   11 1
  19   10   12 1
  20   10   32 1
  21   11   16 ar
  22   11   20 ar
  23   12   13 1
  24   12   33 1
  25   12   34 1
  26   13   14 2
  27   13   15 2
  28   16   17 ar
  29   16   35 1
  30   17   18 ar
  31   17   36 1
  32   18   19 ar
  33   18   37 1
  34   19   20 ar
  35   19   38 1
  36   21   23 ar
  37   21   22 ar
  38   22   26 ar
  39   22   39 1
  40   23   24 ar
  41   23   40 1
  42   24   25 ar
  43   24   41 1
  44   25   26 ar
  45   25   42 1
  46   26   43 1

#	End of record

