#	Name: ASD04590532
#	Creating user name:	WinNT
#	Creation time:	15. 06. 2019 20:51

#	Modifying user name:	WinNT
#	Modification time:	15. 06. 2019 20:51

#	Program:	/corina/corina34_cracker 3.40 0067  02.08.2006

@<TRIPOS>MOLECULE
ASD04590532
  61   65    0    0    0
SMALL
NO_CHARGES


@<TRIPOS>ATOM
   1 C1            -0.0169     1.3919     0.0097 C.ar    
   2 C2             0.0021    -0.0041     0.0020 C.ar    
   3 C3            -2.4013    -0.0383     0.0252 C.ar    
   4 C4            -2.4140     1.3672     0.0440 C.ar    
   5 C5            -1.2195     2.0733     0.0306 C.ar    
   6 N6            -3.6930    -0.4516     0.0451 N.2     
   7 C7            -4.4887     0.5897     0.0744 C.2     
   8 N8            -3.7459     1.7405     0.0750 N.pl3   
   9 C9            -5.9648     0.5309     0.1025 C.2     
  10 C10           -6.7501    -0.6452     0.1029 C.2     
  11 C11           -8.0529    -0.2721     0.1331 C.2     
  12 N12           -8.0970     1.0860     0.1513 N.pl3   
  13 N13           -6.7813     1.5657     0.1374 N.2     
  14 N14           -6.2668    -1.9633     0.0762 N.am    
  15 C15           -7.1305    -2.9979     0.0800 C.2     
  16 O16           -8.3281    -2.7900     0.1065 O.2     
  17 C17           -1.1781    -0.7176     0.0095 C.ar    
  18 C18           -6.6216    -4.3858     0.0519 C.ar    
  19 O19            1.1536     2.0847     0.0022 O.3     
  20 C20            1.0634     3.5109     0.0108 C.3     
  21 C21           -7.5135    -5.4579     0.0558 C.ar    
  22 O22            1.1915    -0.6643    -0.0133 O.3     
  23 C23            1.1408    -2.0924    -0.0205 C.3     
  24 C24           -7.0299    -6.7575     0.0294 C.ar    
  25 C25           -5.6603    -6.9891    -0.0008 C.ar    
  26 C26           -4.7740    -5.9254    -0.0046 C.ar    
  27 C27           -5.2471    -4.6268     0.0157 C.ar    
  28 F28           -3.4434    -6.1573    -0.0340 F       
  29 N29           -7.9203    -7.8341     0.0336 N.3     
  30 C30           -7.1990    -9.1141     0.0027 C.3     
  31 C31           -8.2041   -10.2651     0.0886 C.3     
  32 N32           -9.1507   -10.1701    -1.0315 N.3     
  33 C33           -9.8719    -8.8901    -1.0006 C.3     
  34 C34           -8.8669    -7.7390    -1.0865 C.3     
  35 C35          -10.0869   -11.3021    -1.0271 C.3     
  36 H36           -1.2293     3.1532     0.0368 H       
  37 H37           -4.0893     2.6475     0.0942 H       
  38 H38           -8.9045    -0.9362     0.1410 H       
  39 H39           -8.9005     1.6290     0.1737 H       
  40 H40           -5.3113    -2.1292     0.0551 H       
  41 H41           -1.1583    -1.7974     0.0027 H       
  42 H42            0.5192     3.8458    -0.8723 H       
  43 H43            0.5362     3.8362     0.9076 H       
  44 H44            2.0660     3.9384     0.0035 H       
  45 H45           -8.5779    -5.2766     0.0796 H       
  46 H46            0.6232    -2.4420     0.8728 H       
  47 H47            0.6056    -2.4325    -0.9070 H       
  48 H48            2.1548    -2.4919    -0.0327 H       
  49 H49           -5.2859    -8.0019    -0.0209 H       
  50 H50           -4.5534    -3.7991     0.0127 H       
  51 H51           -6.6358    -9.1918    -0.9273 H       
  52 H52           -6.5137    -9.1659     0.8487 H       
  53 H53           -7.6735   -11.2159     0.0366 H       
  54 H54           -8.7484   -10.2031     1.0309 H       
  55 H55          -10.5573    -8.8383    -1.8466 H       
  56 H56          -10.4352    -8.8124    -0.0706 H       
  57 H57           -9.3975    -6.7883    -1.0345 H       
  58 H58           -8.3226    -7.8011    -2.0288 H       
  59 H59          -10.6494   -11.3048    -0.0934 H       
  60 H60          -10.7761   -11.2069    -1.8662 H       
  61 H61           -9.5299   -12.2346    -1.1184 H       
@<TRIPOS>BOND
   1    1    2 ar
   2    1   19 1
   3    1    5 ar
   4    2   17 ar
   5    2   22 1
   6    3    4 ar
   7    3    6 1
   8    3   17 ar
   9    4    5 ar
  10    4    8 1
  11    5   36 1
  12    6    7 2
  13    7    8 1
  14    7    9 1
  15    8   37 1
  16    9   10 1
  17    9   13 2
  18   10   11 2
  19   10   14 1
  20   11   12 1
  21   11   38 1
  22   12   13 1
  23   12   39 1
  24   14   15 am
  25   14   40 1
  26   15   16 2
  27   15   18 1
  28   17   41 1
  29   18   21 ar
  30   18   27 ar
  31   19   20 1
  32   20   42 1
  33   20   43 1
  34   20   44 1
  35   21   24 ar
  36   21   45 1
  37   22   23 1
  38   23   46 1
  39   23   47 1
  40   23   48 1
  41   24   25 ar
  42   24   29 1
  43   25   26 ar
  44   25   49 1
  45   26   27 ar
  46   26   28 1
  47   27   50 1
  48   29   30 1
  49   29   34 1
  50   30   31 1
  51   30   51 1
  52   30   52 1
  53   31   32 1
  54   31   53 1
  55   31   54 1
  56   32   33 1
  57   32   35 1
  58   33   34 1
  59   33   55 1
  60   33   56 1
  61   34   57 1
  62   34   58 1
  63   35   59 1
  64   35   60 1
  65   35   61 1

#	End of record

