#	Name: ASD01912036
#	Creating user name:	WinNT
#	Creation time:	15. 06. 2019 19:58

#	Modifying user name:	WinNT
#	Modification time:	15. 06. 2019 19:58

#	Program:	/corina/corina34_cracker 3.40 0067  02.08.2006

@<TRIPOS>MOLECULE
ASD01912036
  41   44    0    0    0
SMALL
NO_CHARGES


@<TRIPOS>ATOM
   1 C1            -0.0158     1.3159     0.0093 C.ar    
   2 N2             0.0021    -0.0041     0.0020 N.ar    
   3 C3            -1.1260    -0.7005     0.0090 C.ar    
   4 N4            -2.3140    -0.1115     0.0230 N.ar    
   5 C5            -2.4184     1.2041     0.0311 C.ar    
   6 C6            -1.2502     1.9783     0.0305 C.ar    
   7 C7            -1.3165     3.4087     0.0390 C.1     
   8 N8            -1.3691     4.5435     0.0458 N.1     
   9 N9            -1.0619    -2.0828     0.0010 N.pl3   
  10 C10           -2.2235    -2.8274     0.0080 C.2     
  11 O11           -2.2774    -4.1709     0.0013 O.3     
  12 C12           -3.5784    -4.5413     0.0125 C.ar    
  13 C13           -4.3274    -3.3550     0.0265 C.ar    
  14 N14           -3.4327    -2.3293     0.0279 N.2     
  15 C15           -4.2269    -5.7656     0.0125 C.ar    
  16 C16           -5.6061    -5.8136     0.0262 C.ar    
  17 C17           -6.3502    -4.6437     0.0396 C.ar    
  18 C18           -5.7216    -3.4179     0.0407 C.ar    
  19 C19            1.2721     2.0983     0.0012 C.3     
  20 C20            2.0943     1.7401     1.2407 C.3     
  21 C21            3.4019     2.5345     1.2325 C.3     
  22 C22            4.2003     2.1896    -0.0263 C.3     
  23 C23            3.3780     2.5479    -1.2658 C.3     
  24 C24            2.0705     1.7535    -1.2576 C.3     
  25 H25           -3.3893     1.6770     0.0421 H       
  26 H26           -0.2003    -2.5283    -0.0096 H       
  27 H27           -3.6540    -6.6811     0.0014 H       
  28 H28           -6.1094    -6.7692     0.0262 H       
  29 H29           -7.4290    -4.6937     0.0496 H       
  30 H30           -6.3052    -2.5093     0.0512 H       
  31 H31            1.0491     3.1653     0.0090 H       
  32 H32            1.5255     1.9858     2.1375 H       
  33 H33            2.3173     0.6731     1.2329 H       
  34 H34            3.1789     3.6014     1.2404 H       
  35 H35            3.9877     2.2792     2.1156 H       
  36 H36            5.1318     2.7555    -0.0321 H       
  37 H37            4.4233     1.1227    -0.0341 H       
  38 H38            3.1550     3.6148    -1.2580 H       
  39 H39            3.9468     2.3022    -2.1626 H       
  40 H40            2.2935     0.6866    -1.2655 H       
  41 H41            1.4847     2.0087    -2.1407 H       
@<TRIPOS>BOND
   1    1    2 ar
   2    1   19 1
   3    1    6 ar
   4    2    3 ar
   5    3    4 ar
   6    3    9 1
   7    4    5 ar
   8    5    6 ar
   9    5   25 1
  10    6    7 1
  11    7    8 3
  12    9   10 1
  13    9   26 1
  14   10   11 1
  15   10   14 2
  16   11   12 1
  17   12   13 ar
  18   12   15 ar
  19   13   14 1
  20   13   18 ar
  21   15   16 ar
  22   15   27 1
  23   16   17 ar
  24   16   28 1
  25   17   18 ar
  26   17   29 1
  27   18   30 1
  28   19   20 1
  29   19   24 1
  30   19   31 1
  31   20   21 1
  32   20   32 1
  33   20   33 1
  34   21   22 1
  35   21   34 1
  36   21   35 1
  37   22   23 1
  38   22   36 1
  39   22   37 1
  40   23   24 1
  41   23   38 1
  42   23   39 1
  43   24   40 1
  44   24   41 1

#	End of record

