#	Name: ASD01912259
#	Creating user name:	WinNT
#	Creation time:	15. 06. 2019 19:59

#	Modifying user name:	WinNT
#	Modification time:	15. 06. 2019 19:59

#	Program:	/corina/corina34_cracker 3.40 0067  02.08.2006

@<TRIPOS>MOLECULE
ASD01912259
  44   46    0    0    0
SMALL
NO_CHARGES


@<TRIPOS>ATOM
   1 C1            -0.0168     1.3872     0.0097 C.ar    
   2 C2             0.0021    -0.0041     0.0020 C.ar    
   3 C3             1.2195    -0.6601    -0.0132 C.ar    
   4 C4             2.3819     0.0999    -0.0202 C.ar    
   5 C5             2.2894     1.4770    -0.0120 C.ar    
   6 N6             1.1137     2.0763     0.0026 N.ar    
   7 C7             3.7306    -0.5722    -0.0363 C.3     
   8 F8             4.1356    -0.7735    -1.3602 F       
   9 F9             4.6636     0.2389     0.6186 F       
  10 F10            3.6447    -1.8059     0.6178 F       
  11 N11           -1.2334     2.0595     0.0191 N.3     
  12 C12           -1.0308     3.5137     0.0260 C.3     
  13 C13           -2.3732     4.2159    -0.2088 C.3     
  14 C14           -3.3638     3.6989     0.8133 C.2     
  15 C15           -3.4785     2.1991     0.9892 C.3     
  16 C16           -2.0659     1.6251     1.1478 C.3     
  17 C17           -4.1092     4.5355     1.5341 C.2     
  18 C18           -5.0386     4.0206     2.4941 C.1     
  19 C19           -5.8005     3.5985     3.2812 C.1     
  20 C20           -6.7299     3.0836     4.2413 C.ar    
  21 C21           -7.5096     3.9658     4.9950 C.ar    
  22 C22           -8.4021     3.4521     5.9177 C.ar    
  23 C23           -8.4894     2.0735     6.0604 C.ar    
  24 C24           -7.6884     1.2574     5.2826 C.ar    
  25 N25           -6.8491     1.7692     4.4059 N.ar    
  26 C26           -7.7815    -0.2389     5.4358 C.3     
  27 H27           -0.9214    -0.5640     0.0082 H       
  28 H28            1.2652    -1.7391    -0.0191 H       
  29 H29            3.1908     2.0718    -0.0174 H       
  30 H30           -0.6243     3.8196     0.9900 H       
  31 H31           -0.3339     3.7875    -0.7661 H       
  32 H32           -2.2506     5.2925    -0.0900 H       
  33 H33           -2.7328     3.9949    -1.2137 H       
  34 H34           -4.0675     1.9774     1.8791 H       
  35 H35           -3.9567     1.7618     0.1128 H       
  36 H36           -2.1157     0.5364     1.1651 H       
  37 H37           -1.6302     1.9842     2.0802 H       
  38 H38           -4.0125     5.6020     1.3942 H       
  39 H39           -7.4160     5.0330     4.8587 H       
  40 H40           -9.0176     4.1087     6.5147 H       
  41 H41           -9.1768     1.6422     6.7730 H       
  42 H42           -8.5344    -0.6281     4.7504 H       
  43 H43           -6.8151    -0.6884     5.2074 H       
  44 H44           -8.0624    -0.4824     6.4604 H       
@<TRIPOS>BOND
   1    1    2 ar
   2    1    6 ar
   3    1   11 1
   4    2    3 ar
   5    2   27 1
   6    3    4 ar
   7    3   28 1
   8    4    5 ar
   9    4    7 1
  10    5    6 ar
  11    5   29 1
  12    7    8 1
  13    7    9 1
  14    7   10 1
  15   11   12 1
  16   11   16 1
  17   12   13 1
  18   12   30 1
  19   12   31 1
  20   13   14 1
  21   13   32 1
  22   13   33 1
  23   14   15 1
  24   14   17 2
  25   15   16 1
  26   15   34 1
  27   15   35 1
  28   16   36 1
  29   16   37 1
  30   17   18 1
  31   17   38 1
  32   18   19 3
  33   19   20 1
  34   20   21 ar
  35   20   25 ar
  36   21   22 ar
  37   21   39 1
  38   22   23 ar
  39   22   40 1
  40   23   24 ar
  41   23   41 1
  42   24   25 ar
  43   24   26 1
  44   26   42 1
  45   26   43 1
  46   26   44 1

#	End of record

