#	Name: ASD03330101
#	Creating user name:	WinNT
#	Creation time:	15. 06. 2019 20:36

#	Modifying user name:	WinNT
#	Modification time:	15. 06. 2019 20:36

#	Program:	/corina/corina34_cracker 3.40 0067  02.08.2006

@<TRIPOS>MOLECULE
ASD03330101
  62   66    0    0    0
SMALL
NO_CHARGES


@<TRIPOS>ATOM
   1 C1            -0.7247     1.3653    -0.0689 C.2     
   2 C2            -0.4925     0.0225    -0.0699 C.2     
   3 C3             0.4040     2.1456    -0.2098 C.2     
   4 C4             1.5747     1.4316    -0.3276 C.2     
   5 S5             1.2270    -0.2901    -0.2567 S.3     
   6 C6             2.9174     2.0216    -0.4894 C.ar    
   7 C7             3.9714     1.6038     0.3291 C.ar    
   8 C8             3.1427     2.9958    -1.4647 C.ar    
   9 C9             4.4000     3.5434    -1.6108 C.ar    
  10 C10            5.4388     3.1294    -0.7937 C.ar    
  11 C11            5.2246     2.1602     0.1720 C.ar    
  12 C12            0.3597     3.6272    -0.2332 C.ar    
  13 C13           -0.4431     4.2877    -1.1624 C.ar    
  14 C14            1.1164     4.3633     0.6777 C.ar    
  15 C15            1.0730     5.7416     0.6532 C.ar    
  16 C16            0.2767     6.3961    -0.2766 C.ar    
  17 C17           -0.4820     5.6662    -1.1815 C.ar    
  18 C18           -1.5245    -1.0090     0.0649 C.2     
  19 O19           -2.6922    -0.6890     0.1897 O.2     
  20 O20            0.2358     7.7544    -0.2978 O.3     
  21 N21           -1.1807    -2.3121     0.0506 N.am    
  22 C22           -0.4615    -4.0655     2.2181 C.ar    
  23 C23            0.6704    -3.4823     2.7564 C.ar    
  24 C24            0.7956    -3.3521     4.1269 C.ar    
  25 C25           -0.2112    -3.8047     4.9590 C.ar    
  26 C26           -1.3434    -4.3870     4.4207 C.ar    
  27 C27           -1.4680    -4.5185     3.0502 C.ar    
  28 Cl28           3.7040     0.3890     1.5400 Cl      
  29 C29           -0.2928    -5.5874     0.2175 C.2     
  30 N30            0.7604    -6.2671     0.7126 N.am    
  31 O31           -0.9928    -6.0909    -0.6354 O.2     
  32 C32           -0.6044     8.3629    -1.2806 C.3     
  33 C33           -0.5208     9.8851    -1.1511 C.3     
  34 C34           -1.8908    -3.5958     0.1540 C.3     
  35 C35           -0.6007    -4.2018     0.7237 C.3     
  36 C36            0.0689    -3.0762    -0.0818 C.3     
  37 Cl37           7.0182     3.8239    -0.9853 Cl      
  38 O38            0.8041    10.3180    -1.4661 O.3     
  39 H39           -1.7148     1.7853     0.0299 H       
  40 H40            2.3340     3.3193    -2.1033 H       
  41 H41            4.5751     4.2967    -2.3647 H       
  42 H42            6.0388     1.8420     0.8062 H       
  43 H43           -1.0336     3.7204    -1.8666 H       
  44 H44            1.7356     3.8547     1.4018 H       
  45 H45            1.6588     6.3124     1.3585 H       
  46 H46           -1.1004     6.1784    -1.9036 H       
  47 H47            1.4569    -3.1287     2.1063 H       
  48 H48            1.6802    -2.8971     4.5475 H       
  49 H49           -0.1130    -3.7036     6.0298 H       
  50 H50           -2.1297    -4.7412     5.0708 H       
  51 H51           -2.3524    -4.9738     2.6296 H       
  52 H52            1.0019    -7.1282     0.3369 H       
  53 H53            1.2770    -5.8952     1.4445 H       
  54 H54           -0.2747     8.0643    -2.2757 H       
  55 H55           -1.6345     8.0412    -1.1274 H       
  56 H56           -1.2276    10.3477    -1.8400 H       
  57 H57           -0.7652    10.1768    -0.1296 H       
  58 H58           -2.7148    -3.5798     0.8674 H       
  59 H59           -2.1767    -4.0128    -0.8117 H       
  60 H60            0.3031    -3.3574    -1.1085 H       
  61 H61            0.9128    -2.6169     0.4330 H       
  62 H62            0.9303    11.2747    -1.4046 H       
@<TRIPOS>BOND
   1    1    2 2
   2    1    3 1
   3    1   39 1
   4    2   18 1
   5    2    5 1
   6    3    4 2
   7    3   12 1
   8    4    5 1
   9    4    6 1
  10    6    7 ar
  11    6    8 ar
  12    7   28 1
  13    7   11 ar
  14    8    9 ar
  15    8   40 1
  16    9   10 ar
  17    9   41 1
  18   10   11 ar
  19   10   37 1
  20   11   42 1
  21   12   13 ar
  22   12   14 ar
  23   13   17 ar
  24   13   43 1
  25   14   15 ar
  26   14   44 1
  27   15   16 ar
  28   15   45 1
  29   16   17 ar
  30   16   20 1
  31   17   46 1
  32   18   19 2
  33   18   21 am
  34   20   32 1
  35   21   34 1
  36   21   36 1
  37   22   23 ar
  38   22   27 ar
  39   22   35 1
  40   23   24 ar
  41   23   47 1
  42   24   25 ar
  43   24   48 1
  44   25   26 ar
  45   25   49 1
  46   26   27 ar
  47   26   50 1
  48   27   51 1
  49   29   30 am
  50   29   31 2
  51   29   35 1
  52   30   52 1
  53   30   53 1
  54   32   33 1
  55   32   54 1
  56   32   55 1
  57   33   38 1
  58   33   56 1
  59   33   57 1
  60   34   35 1
  61   34   58 1
  62   34   59 1
  63   35   36 1
  64   36   60 1
  65   36   61 1
  66   38   62 1

#	End of record

