#	Name: ASD09080128
#	Creating user name:	WinNT
#	Creation time:	15. 06. 2019 21:20

#	Modifying user name:	WinNT
#	Modification time:	15. 06. 2019 21:20

#	Program:	/corina/corina34_cracker 3.40 0067  02.08.2006

@<TRIPOS>MOLECULE
ASD09080128
  70   73    0    0    0
SMALL
NO_CHARGES


@<TRIPOS>ATOM
   1 C1             0.2833     2.0153     0.2940 C.ar    
   2 C2             0.1865     0.6345     0.3038 C.ar    
   3 C3             1.3301    -0.1404     0.2924 C.ar    
   4 C4             2.5823     0.4701     0.2711 C.ar    
   5 C5             2.6744     1.8602     0.2613 C.ar    
   6 C6             1.5250     2.6264     0.2728 C.ar    
   7 Cl7            1.6382     4.3587     0.2601 Cl      
   8 Cl8           -1.3744    -0.1246     0.3309 Cl      
   9 C9             3.8139    -0.3577     0.2593 C.ar    
  10 C10            5.0663     0.2525     0.2380 C.ar    
  11 C11            3.7221    -1.7479     0.2753 C.ar    
  12 C12            4.8708    -2.5130     0.2642 C.ar    
  13 C13            6.1115    -1.9020     0.2377 C.ar    
  14 C14            6.2085    -0.5222     0.2270 C.ar    
  15 C15            7.3622    -2.7426     0.2267 C.3     
  16 C16            7.7623    -3.0426    -1.2193 C.3     
  17 C17            8.9577    -3.9975    -1.2300 C.3     
  18 N18            8.1282    -1.7946    -1.8937 N.am    
  19 C19            8.5513    -5.3881    -0.6945 C.3     
  20 O20            9.9654    -3.5681    -0.2825 O.3     
  21 C21           10.6655    -4.7909     0.0324 C.3     
  22 O22            9.6620    -5.8175     0.1133 O.3     
  23 C23           11.6693    -5.1223    -1.0737 C.3     
  24 C24           11.3869    -4.6535     1.3747 C.3     
  25 C25            9.0656    -0.9885    -1.3573 C.2     
  26 O26            9.5410    -1.2494    -0.2724 O.2     
  27 C27            9.5232     0.2371    -2.1054 C.3     
  28 O28           10.5955     0.8574    -1.3930 O.3     
  29 C29           11.1798     1.9691    -2.0746 C.3     
  30 C30            8.3343    -6.3460    -1.8375 C.2     
  31 O31            9.0420    -7.3185    -1.9534 O.2     
  32 O32            7.3547    -6.1190    -2.7267 O.3     
  33 C33            5.9234    -6.7730    -4.5602 C.ar    
  34 C34            6.0843    -6.0967    -5.7550 C.ar    
  35 C35            4.9788    -5.7649    -6.5157 C.ar    
  36 C36            3.7125    -6.1099    -6.0818 C.ar    
  37 C37            3.5517    -6.7871    -4.8875 C.ar    
  38 C38            4.6571    -7.1176    -4.1261 C.ar    
  39 C39            7.1291    -7.1402    -3.7339 C.3     
  40 H40           -0.6131     2.6177     0.2984 H       
  41 H41            1.2536    -1.2177     0.3004 H       
  42 H42            3.6429     2.3380     0.2451 H       
  43 H43            5.1432     1.3298     0.2296 H       
  44 H44            2.7539    -2.2260     0.2967 H       
  45 H45            4.8009    -3.5906     0.2766 H       
  46 H46            7.1797    -0.0503     0.2060 H       
  47 H47            8.1683    -2.2011     0.7218 H       
  48 H48            7.1757    -3.6783     0.7537 H       
  49 H49            6.9235    -3.5046    -1.7400 H       
  50 H50            9.3766    -4.0777    -2.2331 H       
  51 H51            7.6957    -1.5485    -2.7264 H       
  52 H52            7.6493    -5.3112    -0.0875 H       
  53 H53           12.3909    -4.3105    -1.1647 H       
  54 H54           12.1914    -6.0464    -0.8256 H       
  55 H55           11.1407    -5.2462    -2.0188 H       
  56 H56           10.6588    -4.4463     2.1589 H       
  57 H57           11.9114    -5.5816     1.6020 H       
  58 H58           12.1044    -3.8348     1.3194 H       
  59 H59            9.8659    -0.0508    -3.0993 H       
  60 H60            8.6936     0.9382    -2.1961 H       
  61 H61           11.5003     1.6580    -3.0689 H       
  62 H62           10.4440     2.7684    -2.1635 H       
  63 H63           12.0408     2.3289    -1.5114 H       
  64 H64            7.0737    -5.8271    -6.0940 H       
  65 H65            5.1044    -5.2358    -7.4488 H       
  66 H66            2.8487    -5.8501    -6.6758 H       
  67 H67            2.5622    -7.0560    -4.5481 H       
  68 H68            4.5314    -7.6460    -3.1926 H       
  69 H69            8.0039    -7.2128    -4.3800 H       
  70 H70            6.9569    -8.0997    -3.2463 H       
@<TRIPOS>BOND
   1    1    2 ar
   2    1    6 ar
   3    1   40 1
   4    2    3 ar
   5    2    8 1
   6    3    4 ar
   7    3   41 1
   8    4    5 ar
   9    4    9 1
  10    5    6 ar
  11    5   42 1
  12    6    7 1
  13    9   10 ar
  14    9   11 ar
  15   10   14 ar
  16   10   43 1
  17   11   12 ar
  18   11   44 1
  19   12   13 ar
  20   12   45 1
  21   13   14 ar
  22   13   15 1
  23   14   46 1
  24   15   16 1
  25   15   47 1
  26   15   48 1
  27   16   18 1
  28   16   17 1
  29   16   49 1
  30   17   19 1
  31   17   20 1
  32   17   50 1
  33   18   25 am
  34   18   51 1
  35   19   22 1
  36   19   30 1
  37   19   52 1
  38   20   21 1
  39   21   22 1
  40   21   23 1
  41   21   24 1
  42   23   53 1
  43   23   54 1
  44   23   55 1
  45   24   56 1
  46   24   57 1
  47   24   58 1
  48   25   26 2
  49   25   27 1
  50   27   28 1
  51   27   59 1
  52   27   60 1
  53   28   29 1
  54   29   61 1
  55   29   62 1
  56   29   63 1
  57   30   31 2
  58   30   32 1
  59   32   39 1
  60   33   34 ar
  61   33   38 ar
  62   33   39 1
  63   34   35 ar
  64   34   64 1
  65   35   36 ar
  66   35   65 1
  67   36   37 ar
  68   36   66 1
  69   37   38 ar
  70   37   67 1
  71   38   68 1
  72   39   69 1
  73   39   70 1

#	End of record

