#	Name: ASD01913736
#	Creating user name:	WinNT
#	Creation time:	15. 06. 2019 20:02

#	Modifying user name:	WinNT
#	Modification time:	15. 06. 2019 20:02

#	Program:	/corina/corina34_cracker 3.40 0067  02.08.2006

@<TRIPOS>MOLECULE
ASD01913736
  43   45    0    0    0
SMALL
NO_CHARGES


@<TRIPOS>ATOM
   1 O1            -0.0163     1.3508     0.0095 O.3     
   2 C2             0.0021    -0.0041     0.0020 C.ar    
   3 N3             1.1629    -0.6408    -0.0125 N.ar    
   4 C4             1.2330    -1.9556    -0.0202 C.ar    
   5 C5             0.0719    -2.7293    -0.0137 C.ar    
   6 C6            -1.1744    -2.0856     0.0016 C.ar    
   7 C7            -1.1994    -0.7064     0.0154 C.ar    
   8 C8             0.1538    -4.2032    -0.0234 C.2     
   9 N9             1.3565    -4.8112    -0.0386 N.am    
  10 O10           -0.8637    -4.8686    -0.0177 O.2     
  11 C11            1.2480     2.0168     0.0010 C.3     
  12 C12            1.0303     3.5079     0.0111 C.ar    
  13 C13            0.9419     4.1851     1.2128 C.ar    
  14 C14            0.7418     5.5532     1.2236 C.ar    
  15 C15            0.6298     6.2450     0.0328 C.ar    
  16 C16            0.7186     5.5677    -1.1718 C.ar    
  17 C17            0.9247     4.1988    -1.1815 C.ar    
  18 C18            1.4378    -6.2739    -0.0482 C.3     
  19 F19            0.6093     6.2431    -2.3368 F       
  20 C20            2.7413    -6.8145    -0.6595 C.3     
  21 C21            2.7355    -7.8701     0.4588 C.3     
  22 C22            1.9079    -6.8735     1.2876 C.3     
  23 O23            2.0235    -9.0612     0.1179 O.3     
  24 C24            4.1212    -8.1512     1.0433 C.3     
  25 F25            4.6470    -6.9730     1.5841 F       
  26 F26            4.0160    -9.1191     2.0480 F       
  27 F27            4.9678    -8.6187     0.0323 F       
  28 H28            2.1983    -2.4397    -0.0320 H       
  29 H29           -2.0916    -2.6557     0.0069 H       
  30 H30           -2.1409    -0.1774     0.0278 H       
  31 H31            2.1684    -4.2803    -0.0432 H       
  32 H32            1.8174     1.7267     0.8840 H       
  33 H33            1.8004     1.7363    -0.8958 H       
  34 H34            1.0289     3.6451     2.1441 H       
  35 H35            0.6725     6.0812     2.1632 H       
  36 H36            0.4728     7.3135     0.0415 H       
  37 H37            0.9941     3.6695    -2.1203 H       
  38 H38            0.5398    -6.7451    -0.4479 H       
  39 H39            2.6142    -7.2346    -1.6572 H       
  40 H40            3.5757    -6.1160    -0.5963 H       
  41 H41            2.5145    -6.1912     1.8830 H       
  42 H42            1.1082    -7.3414     1.8617 H       
  43 H43            2.0164    -9.7290     0.8173 H       
@<TRIPOS>BOND
   1    1    2 1
   2    1   11 1
   3    2    3 ar
   4    2    7 ar
   5    3    4 ar
   6    4    5 ar
   7    4   28 1
   8    5    6 ar
   9    5    8 1
  10    6    7 ar
  11    6   29 1
  12    7   30 1
  13    8    9 am
  14    8   10 2
  15    9   18 1
  16    9   31 1
  17   11   12 1
  18   11   32 1
  19   11   33 1
  20   12   13 ar
  21   12   17 ar
  22   13   14 ar
  23   13   34 1
  24   14   15 ar
  25   14   35 1
  26   15   16 ar
  27   15   36 1
  28   16   17 ar
  29   16   19 1
  30   17   37 1
  31   18   20 1
  32   18   22 1
  33   18   38 1
  34   20   21 1
  35   20   39 1
  36   20   40 1
  37   21   22 1
  38   21   23 1
  39   21   24 1
  40   22   41 1
  41   22   42 1
  42   23   43 1
  43   24   25 1
  44   24   26 1
  45   24   27 1

#	End of record

