#	Name: ASD01815671
#	Creating user name:	WinNT
#	Creation time:	15. 06. 2019 19:33

#	Modifying user name:	WinNT
#	Modification time:	15. 06. 2019 19:33

#	Program:	/corina/corina34_cracker 3.40 0067  02.08.2006

@<TRIPOS>MOLECULE
ASD01815671
  55   57    0    0    0
SMALL
NO_CHARGES


@<TRIPOS>ATOM
   1 C1            -0.0169     1.3919     0.0097 C.ar    
   2 C2             0.0021    -0.0041     0.0020 C.ar    
   3 C3             1.2509     2.1503     0.0017 C.2     
   4 O4             2.3129     1.5589    -0.0117 O.2     
   5 N5             1.2300     3.4979     0.0091 N.am    
   6 C6             2.4872     4.2500     0.0011 C.3     
   7 C7             2.2604     5.6309     0.6204 C.3     
   8 N8             3.5154     6.3930     0.5935 N.3     
   9 C9             3.9777     6.6062    -0.7839 C.3     
  10 C10            4.2558     5.2544    -1.4451 C.3     
  11 C11            2.9742     4.4164    -1.4410 C.3     
  12 C12            3.3709     7.6706     1.3040 C.3     
  13 C13            4.7269     8.3777     1.3625 C.3     
  14 C14            4.5795     9.6929     2.1340 C.3     
  15 N15            3.5107    10.4878     1.5139 N.am    
  16 C16            2.1901     9.8717     1.3265 C.3     
  17 C17            2.3642     8.5545     0.5641 C.3     
  18 C18            3.7373    11.7581     1.1246 C.2     
  19 O19            4.8338    12.2564     1.2854 O.2     
  20 O20            2.7487    12.4749     0.5577 O.3     
  21 C21            3.0643    13.8362     0.1632 C.3     
  22 C22            1.8266    14.4873    -0.4575 C.3     
  23 C23           -1.1835    -0.7082     0.0091 C.ar    
  24 C24           -2.3936    -0.0333     0.0233 C.ar    
  25 C25           -2.4195     1.3552     0.0306 C.ar    
  26 C26           -1.2383     2.0691     0.0192 C.ar    
  27 F27           -3.6023     2.0080     0.0435 F       
  28 F28           -3.5521    -0.7283     0.0297 F       
  29 H29            0.9442    -0.5319    -0.0098 H       
  30 H30            0.3826     3.9698     0.0197 H       
  31 H31            3.2376     3.7107     0.5793 H       
  32 H32            1.4995     6.1641     0.0504 H       
  33 H33            1.9273     5.5161     1.6519 H       
  34 H34            3.2088     7.1348    -1.3473 H       
  35 H35            4.8918     7.1998    -0.7724 H       
  36 H36            4.5840     5.4124    -2.4724 H       
  37 H37            5.0345     4.7311    -0.8901 H       
  38 H38            3.1785     3.4363    -1.8719 H       
  39 H39            2.2072     4.9210    -2.0285 H       
  40 H40            3.0144     7.4844     2.3171 H       
  41 H41            5.4493     7.7377     1.8691 H       
  42 H42            5.0722     8.5866     0.3500 H       
  43 H43            4.3221     9.4809     3.1718 H       
  44 H44            5.5173    10.2471     2.0939 H       
  45 H45            1.7378     9.6743     2.2984 H       
  46 H46            1.5513    10.5438     0.7536 H       
  47 H47            2.7318     8.7617    -0.4409 H       
  48 H48            1.4051     8.0403     0.5023 H       
  49 H49            3.3737    14.4059     1.0394 H       
  50 H50            3.8735    13.8246    -0.5670 H       
  51 H51            1.5172    13.9175    -1.3337 H       
  52 H52            1.0174    14.4989     0.2727 H       
  53 H53            2.0635    15.5092    -0.7536 H       
  54 H54           -1.1689    -1.7880     0.0031 H       
  55 H55           -1.2585     3.1489     0.0252 H       
@<TRIPOS>BOND
   1    1    2 ar
   2    1    3 1
   3    1   26 ar
   4    2   23 ar
   5    2   29 1
   6    3    4 2
   7    3    5 am
   8    5    6 1
   9    5   30 1
  10    6    7 1
  11    6   11 1
  12    6   31 1
  13    7    8 1
  14    7   32 1
  15    7   33 1
  16    8    9 1
  17    8   12 1
  18    9   10 1
  19    9   34 1
  20    9   35 1
  21   10   11 1
  22   10   36 1
  23   10   37 1
  24   11   38 1
  25   11   39 1
  26   12   13 1
  27   12   17 1
  28   12   40 1
  29   13   14 1
  30   13   41 1
  31   13   42 1
  32   14   15 1
  33   14   43 1
  34   14   44 1
  35   15   16 1
  36   15   18 am
  37   16   17 1
  38   16   45 1
  39   16   46 1
  40   17   47 1
  41   17   48 1
  42   18   19 2
  43   18   20 1
  44   20   21 1
  45   21   22 1
  46   21   49 1
  47   21   50 1
  48   22   51 1
  49   22   52 1
  50   22   53 1
  51   23   24 ar
  52   23   54 1
  53   24   25 ar
  54   24   28 1
  55   25   26 ar
  56   25   27 1
  57   26   55 1

#	End of record

