#	Name: ASD01914015
#	Creating user name:	WinNT
#	Creation time:	15. 06. 2019 20:02

#	Modifying user name:	WinNT
#	Modification time:	15. 06. 2019 20:02

#	Program:	/corina/corina34_cracker 3.40 0067  02.08.2006

@<TRIPOS>MOLECULE
ASD01914015
  53   57    0    0    0
SMALL
NO_CHARGES


@<TRIPOS>ATOM
   1 C1            -0.0167     1.3784     0.0096 C.ar    
   2 C2             0.0021    -0.0041     0.0020 C.ar    
   3 C3             1.2074    -0.6814    -0.0131 C.ar    
   4 C4             2.3802     1.4093    -0.0131 C.ar    
   5 C5             1.1695     2.0865     0.0021 C.ar    
   6 O6             3.5484     2.1036    -0.0201 O.3     
   7 C7             4.7565     1.3405    -0.0357 C.3     
   8 C8             5.9399     2.2735    -0.0414 C.ar    
   9 N9             7.1606     1.7732    -0.0557 N.ar    
  10 C10            8.2282     2.5442    -0.0613 C.ar    
  11 C11            8.1003     3.9335    -0.0517 C.ar    
  12 C12            6.8174     4.4944    -0.0366 C.ar    
  13 C13            5.7285     3.6408    -0.0374 C.ar    
  14 C14            9.2990     4.7988    -0.0571 C.2     
  15 N15           10.5284     4.2469    -0.0712 N.am    
  16 O16            9.1757     6.0080    -0.0486 O.2     
  17 C17           11.7163     5.1043    -0.0765 C.3     
  18 C18            2.3963     0.0221    -0.0207 C.ar    
  19 C19           12.9740     4.2333    -0.0929 C.3     
  20 C20           11.6967     5.9952    -1.3202 C.3     
  21 C21           12.9372     6.8907    -1.3257 C.3     
  22 C22           12.9396     7.7664    -0.0711 C.3     
  23 C23           12.9592     6.8755     1.1726 C.3     
  24 C24           11.7187     5.9800     1.1781 C.3     
  25 C25           14.2145     5.1288    -0.0984 C.3     
  26 C26           14.1949     6.0197    -1.3421 C.3     
  27 C27           14.2169     6.0045     1.1562 C.3     
  28 H28           -0.9595     1.9052     0.0169 H       
  29 H29           -0.9263    -0.5558     0.0083 H       
  30 H30            1.2194    -1.7613    -0.0187 H       
  31 H31            1.1543     3.1664     0.0077 H       
  32 H32            4.7976     0.7070     0.8504 H       
  33 H33            4.7810     0.7171    -0.9295 H       
  34 H34            9.2113     2.0972    -0.0730 H       
  35 H35            6.6813     5.5658    -0.0288 H       
  36 H36            4.7241     4.0376    -0.0259 H       
  37 H37           10.6268     3.2819    -0.0780 H       
  38 H38            3.3375    -0.5074    -0.0325 H       
  39 H39           12.9880     3.5986     0.7932 H       
  40 H40           12.9723     3.6094    -0.9867 H       
  41 H41           11.6949     5.3713    -2.2140 H       
  42 H42           10.8006     6.6158    -1.3086 H       
  43 H43           12.9232     7.5254    -2.2118 H       
  44 H44           13.8234     8.4044    -0.0751 H       
  45 H45           12.0436     8.3870    -0.0595 H       
  46 H46           12.9609     7.4994     2.0664 H       
  47 H47           10.8227     6.6006     1.1898 H       
  48 H48           11.7327     5.3454     2.0641 H       
  49 H49           15.1106     4.5082    -0.1101 H       
  50 H50           14.1932     5.3958    -2.2359 H       
  51 H51           15.0787     6.6576    -1.3460 H       
  52 H52           15.1007     6.6425     1.1523 H       
  53 H53           14.2309     5.3698     2.0423 H       
@<TRIPOS>BOND
   1    1    2 ar
   2    1    5 ar
   3    1   28 1
   4    2    3 ar
   5    2   29 1
   6    3   18 ar
   7    3   30 1
   8    4    5 ar
   9    4    6 1
  10    4   18 ar
  11    5   31 1
  12    6    7 1
  13    7    8 1
  14    7   32 1
  15    7   33 1
  16    8    9 ar
  17    8   13 ar
  18    9   10 ar
  19   10   11 ar
  20   10   34 1
  21   11   12 ar
  22   11   14 1
  23   12   13 ar
  24   12   35 1
  25   13   36 1
  26   14   15 am
  27   14   16 2
  28   15   17 1
  29   15   37 1
  30   17   19 1
  31   17   20 1
  32   17   24 1
  33   18   38 1
  34   19   25 1
  35   19   39 1
  36   19   40 1
  37   20   21 1
  38   20   41 1
  39   20   42 1
  40   21   22 1
  41   21   26 1
  42   21   43 1
  43   22   23 1
  44   22   44 1
  45   22   45 1
  46   23   24 1
  47   23   27 1
  48   23   46 1
  49   24   47 1
  50   24   48 1
  51   25   26 1
  52   25   27 1
  53   25   49 1
  54   26   50 1
  55   26   51 1
  56   27   52 1
  57   27   53 1

#	End of record

