#	Name: ASD00170722
#	Creating user name:	WinNT
#	Creation time:	15. 06. 2019 18:32

#	Modifying user name:	WinNT
#	Modification time:	15. 06. 2019 18:32

#	Program:	/corina/corina34_cracker 3.40 0067  02.08.2006

@<TRIPOS>MOLECULE
ASD00170722
  36   38    0    0    0
SMALL
NO_CHARGES


@<TRIPOS>ATOM
   1 C1             0.0516     1.4460     0.3893 C.2     
   2 C2             0.0595    -0.0251     0.3024 C.ar    
   3 C3             1.2728    -0.7128     0.1882 C.ar    
   4 C4             1.2800    -2.0754     0.1076 C.ar    
   5 C5             0.0743    -2.7844     0.1392 C.ar    
   6 C6            -1.1388    -2.0970     0.2529 C.ar    
   7 C7            -1.1459    -0.7348     0.3398 C.ar    
   8 O8             1.0988     2.0619     0.3618 O.2     
   9 O9            -1.1174     2.1086     0.4937 O.3     
  10 C10            0.0822    -4.2562     0.0522 C.2     
  11 C11           -1.0127    -5.0321     0.0732 C.2     
  12 C12           -0.7371    -6.3973    -0.0247 C.2     
  13 C13            0.6089    -6.6839    -0.1240 C.2     
  14 S14            1.5253    -5.2453    -0.1013 S.3     
  15 C15           -1.7780    -7.4273    -0.0217 C.2     
  16 C16           -2.1557    -8.1003    -1.2828 C.ar    
  17 C17           -1.6046    -7.6788    -2.4945 C.ar    
  18 C18           -1.9607    -8.3104    -3.6674 C.ar    
  19 C19           -2.8636    -9.3607    -3.6452 C.ar    
  20 C20           -3.4139    -9.7830    -2.4463 C.ar    
  21 C21           -3.0604    -9.1636    -1.2661 C.ar    
  22 O22           -2.3323    -7.7296     1.0194 O.2     
  23 Cl23          -3.3075   -10.1504    -5.1261 Cl      
  24 N24            1.1373    -7.9512    -0.2307 N.pl3   
  25 H25            2.2035    -0.1655     0.1634 H       
  26 H26            2.2164    -2.6062     0.0192 H       
  27 H27           -2.0695    -2.6445     0.2769 H       
  28 H28           -2.0822    -0.2044     0.4327 H       
  29 H29           -1.0721     3.0730     0.5478 H       
  30 H30           -2.0142    -4.6370     0.1582 H       
  31 H31           -0.9011    -6.8596    -2.5130 H       
  32 H32           -1.5351    -7.9852    -4.6052 H       
  33 H33           -4.1176   -10.6022    -2.4353 H       
  34 H34           -3.4862    -9.4971    -0.3313 H       
  35 H35            0.5492    -8.7226    -0.2400 H       
  36 H36            2.0974    -8.0724    -0.2967 H       
@<TRIPOS>BOND
   1    1    2 1
   2    1    8 2
   3    1    9 1
   4    2    3 ar
   5    2    7 ar
   6    3    4 ar
   7    3   25 1
   8    4    5 ar
   9    4   26 1
  10    5    6 ar
  11    5   10 1
  12    6    7 ar
  13    6   27 1
  14    7   28 1
  15    9   29 1
  16   10   11 2
  17   10   14 1
  18   11   12 1
  19   11   30 1
  20   12   13 2
  21   12   15 1
  22   13   14 1
  23   13   24 1
  24   15   16 1
  25   15   22 2
  26   16   17 ar
  27   16   21 ar
  28   17   18 ar
  29   17   31 1
  30   18   19 ar
  31   18   32 1
  32   19   20 ar
  33   19   23 1
  34   20   21 ar
  35   20   33 1
  36   21   34 1
  37   24   35 1
  38   24   36 1

#	End of record

