#	Name: ASD01913864
#	Creating user name:	WinNT
#	Creation time:	15. 06. 2019 20:02

#	Modifying user name:	WinNT
#	Modification time:	15. 06. 2019 20:02

#	Program:	/corina/corina34_cracker 3.40 0067  02.08.2006

@<TRIPOS>MOLECULE
ASD01913864
  42   44    0    0    0
SMALL
NO_CHARGES


@<TRIPOS>ATOM
   1 C1            -0.2256     1.4150     0.2144 C.ar    
   2 C2            -0.1441    -0.0131     0.1458 C.1     
   3 C3            -0.0773    -1.1838     0.0896 C.1     
   4 C4             0.0043    -2.6118     0.0210 C.ar    
   5 C5             0.0930    -3.2613    -1.2193 C.ar    
   6 C6             0.1561    -5.3344    -0.0280 C.ar    
   7 N7             0.0773    -4.6921     1.1278 N.ar    
   8 C8             0.0024    -3.3789     1.1882 C.ar    
   9 C9             0.1694    -4.6396    -1.2337 C.ar    
  10 C10           -0.3140     2.0632     1.4489 C.ar    
  11 N11           -0.3894     3.3763     1.5118 N.ar    
  12 C12           -0.2122     2.1866    -0.9554 C.ar    
  13 C13           -0.3845     4.1277     0.4277 C.ar    
  14 N14            0.2332    -6.7251    -0.0364 N.am    
  15 C15           -0.2935     3.5631    -0.8337 C.ar    
  16 C16           -0.9083    -7.4144    -0.0233 C.2     
  17 C17           -0.9705    -8.9143     0.0183 C.3     
  18 C18            0.3811    -9.5033    -0.3930 C.3     
  19 C19            1.4821    -8.7916     0.4025 C.3     
  20 C20            1.5564    -7.3356    -0.0650 C.3     
  21 C21            0.4066   -11.0010    -0.0813 C.3     
  22 C22            0.6041    -9.2842    -1.8907 C.3     
  23 O23           -1.9519    -6.7970    -0.0457 O.2     
  24 Cl24          -0.2881     4.5706    -2.2474 Cl      
  25 H25            0.1009    -2.6970    -2.1401 H       
  26 H26           -0.0606    -2.8904     2.1493 H       
  27 H27            0.2383    -5.1728    -2.1703 H       
  28 H28           -0.3208     1.4823     2.3593 H       
  29 H29           -0.1401     1.7196    -1.9265 H       
  30 H30           -0.4482     5.2014     0.5255 H       
  31 H31           -1.2140    -9.2387     1.0301 H       
  32 H32           -1.7418    -9.2638    -0.6681 H       
  33 H33            1.2457    -8.8265     1.4659 H       
  34 H34            2.4388    -9.2819     0.2219 H       
  35 H35            1.9532    -7.3028    -1.0797 H       
  36 H36            2.2199    -6.7783     0.5962 H       
  37 H37           -0.3888   -11.5008    -0.6342 H       
  38 H38            1.3703   -11.4169    -0.3754 H       
  39 H39            0.2566   -11.1523     0.9876 H       
  40 H40            0.5944    -8.2160    -2.1071 H       
  41 H41            1.5672    -9.7048    -2.1799 H       
  42 H42           -0.1904    -9.7759    -2.4521 H       
@<TRIPOS>BOND
   1    1    2 1
   2    1   10 ar
   3    1   12 ar
   4    2    3 3
   5    3    4 1
   6    4    5 ar
   7    4    8 ar
   8    5    9 ar
   9    5   25 1
  10    6    7 ar
  11    6   14 1
  12    6    9 ar
  13    7    8 ar
  14    8   26 1
  15    9   27 1
  16   10   11 ar
  17   10   28 1
  18   11   13 ar
  19   12   15 ar
  20   12   29 1
  21   13   15 ar
  22   13   30 1
  23   14   16 am
  24   14   20 1
  25   15   24 1
  26   16   17 1
  27   16   23 2
  28   17   18 1
  29   17   31 1
  30   17   32 1
  31   18   19 1
  32   18   21 1
  33   18   22 1
  34   19   20 1
  35   19   33 1
  36   19   34 1
  37   20   35 1
  38   20   36 1
  39   21   37 1
  40   21   38 1
  41   21   39 1
  42   22   40 1
  43   22   41 1
  44   22   42 1

#	End of record

