#	Name: ASD01900715
#	Creating user name:	WinNT
#	Creation time:	15. 06. 2019 19:52

#	Modifying user name:	WinNT
#	Modification time:	15. 06. 2019 19:52

#	Program:	/corina/corina34_cracker 3.40 0067  02.08.2006

@<TRIPOS>MOLECULE
ASD01900715
  58   62    0    0    0
SMALL
NO_CHARGES


@<TRIPOS>ATOM
   1 C1             0.0680     1.3785    -0.1974 C.ar    
   2 C2             0.0994    -0.0025    -0.0489 C.ar    
   3 C3            -1.0715    -0.7313    -0.0008 C.ar    
   4 C4            -2.2972    -0.0864    -0.1006 C.ar    
   5 C5            -2.3265     1.3061    -0.2542 C.ar    
   6 O6            -3.4492    -0.7900    -0.0432 O.3     
   7 C7            -4.6226    -0.2578    -0.4271 C.2     
   8 C8            -4.8014     1.0764    -0.6007 C.2     
   9 C9            -3.6509     1.9680    -0.3721 C.2     
  10 C10           -5.7607    -1.1597    -0.6698 C.2     
  11 N11           -6.9570    -0.6535    -1.0579 N.2     
  12 C12           -7.9857    -1.4137    -1.2822 C.2     
  13 N13           -7.9156    -2.7721    -1.1379 N.pl3   
  14 C14           -6.7230    -3.3533    -0.7440 C.2     
  15 C15           -5.6089    -2.5265    -0.5074 C.2     
  16 C16           -1.1470     2.0374    -0.2946 C.ar    
  17 C17           -8.8341    -3.7628    -1.3097 C.2     
  18 C18           -8.2535    -4.9563    -1.0346 C.2     
  19 C19           -6.9232    -4.7193    -0.6763 C.2     
  20 O20            1.2294     2.0840    -0.2417 O.3     
  21 C21            2.4447     1.3407    -0.1297 C.3     
  22 C22            3.6363     2.2978    -0.2001 C.3     
  23 N23            3.6312     3.1736     0.9793 N.3     
  24 C24            2.4557     4.0711     0.9680 C.3     
  25 C25            2.8991     5.4044     1.5980 C.3     
  26 C26            4.3962     5.2142     1.9337 C.3     
  27 C27            4.8202     4.0639     0.9863 C.3     
  28 C28            6.0417     3.3291     1.5421 C.3     
  29 O29            5.7764     2.9100     2.8823 O.3     
  30 C30            6.8597     2.2099     3.4975 C.3     
  31 N31           -3.7883     3.2693    -0.2778 N.2     
  32 O32           -2.6801     4.0739     0.0823 O.3     
  33 H33            1.0492    -0.5106     0.0292 H       
  34 H34           -1.0345    -1.8045     0.1144 H       
  35 H35           -5.7606     1.4736    -0.8985 H       
  36 H36           -8.9179    -0.9631    -1.5893 H       
  37 H37           -4.6628    -2.9463    -0.1993 H       
  38 H38           -1.1760     3.1108    -0.4098 H       
  39 H39           -9.8601    -3.6203    -1.6155 H       
  40 H40           -8.7348    -5.9219    -1.0838 H       
  41 H41           -6.1907    -5.4628    -0.3986 H       
  42 H42            2.4601     0.8109     0.8227 H       
  43 H43            2.5075     0.6217    -0.9465 H       
  44 H44            4.5626     1.7238    -0.2224 H       
  45 H45            3.5627     2.9039    -1.1031 H       
  46 H46            2.1248     4.2367    -0.0573 H       
  47 H47            1.6486     3.6331     1.5552 H       
  48 H48            2.7716     6.2201     0.8863 H       
  49 H49            2.3298     5.6014     2.5064 H       
  50 H50            4.9589     6.1216     1.7145 H       
  51 H51            4.5237     4.9223     2.9761 H       
  52 H52            5.0217     4.4446    -0.0150 H       
  53 H53            6.2534     2.4567     0.9238 H       
  54 H54            6.9026     3.9976     1.5342 H       
  55 H55            6.5794     1.9261     4.5119 H       
  56 H56            7.0883     1.3143     2.9198 H       
  57 H57            7.7375     2.8552     3.5301 H       
  58 H58           -2.8782     5.0194     0.1259 H       
@<TRIPOS>BOND
   1    1    2 ar
   2    1   20 1
   3    1   16 ar
   4    2    3 ar
   5    2   33 1
   6    3    4 ar
   7    3   34 1
   8    4    5 ar
   9    4    6 1
  10    5   16 ar
  11    5    9 1
  12    6    7 1
  13    7    8 2
  14    7   10 1
  15    8    9 1
  16    8   35 1
  17    9   31 2
  18   10   11 1
  19   10   15 2
  20   11   12 2
  21   12   13 1
  22   12   36 1
  23   13   14 1
  24   13   17 1
  25   14   15 1
  26   14   19 2
  27   15   37 1
  28   16   38 1
  29   17   18 2
  30   17   39 1
  31   18   19 1
  32   18   40 1
  33   19   41 1
  34   20   21 1
  35   21   22 1
  36   21   42 1
  37   21   43 1
  38   22   23 1
  39   22   44 1
  40   22   45 1
  41   23   24 1
  42   23   27 1
  43   24   25 1
  44   24   46 1
  45   24   47 1
  46   25   26 1
  47   25   48 1
  48   25   49 1
  49   26   27 1
  50   26   50 1
  51   26   51 1
  52   27   28 1
  53   27   52 1
  54   28   29 1
  55   28   53 1
  56   28   54 1
  57   29   30 1
  58   30   55 1
  59   30   56 1
  60   30   57 1
  61   31   32 1
  62   32   58 1

#	End of record

