#	Name: ASD00900003
#	Creating user name:	WinNT
#	Creation time:	15. 06. 2019 18:53

#	Modifying user name:	WinNT
#	Modification time:	15. 06. 2019 18:53

#	Program:	/corina/corina34_cracker 3.40 0067  02.08.2006

@<TRIPOS>MOLECULE
ASD00900003
  43   44    0    0    0
SMALL
NO_CHARGES


@<TRIPOS>ATOM
   1 C1            -0.0173     1.4248     0.0099 C.3     
   2 C2             1.4181     1.9544    -0.0010 C.3     
   3 C3             1.4245     3.4933     0.1334 C.3     
   4 O4             1.6779     3.8766     1.4866 O.3     
   5 C5             2.5832     3.9454    -0.7833 C.3     
   6 C6             3.1397     2.6261    -1.3632 C.3     
   7 O7             2.0408     1.6928    -1.2776 O.3     
   8 N8             3.5429     2.8126    -2.7592 N.am    
   9 C9             4.8391     2.6953    -3.0998 C.2     
  10 O10            5.6626     2.4350    -2.2439 O.2     
  11 N11            5.2372     2.8615    -4.3748 N.am    
  12 C12            4.3365     3.1500    -5.3358 C.2     
  13 O13            4.6958     3.3002    -6.4897 O.2     
  14 C14            2.9692     3.2763    -4.9911 C.2     
  15 C15            2.5968     3.0990    -3.7054 C.2     
  16 P16           -1.3361    -0.8992     0.0100 P.3     
  17 O17           -2.2020    -0.5022    -1.1227 O.2     
  18 O18            0.0021    -0.0041     0.0020 O.3     
  19 O19           -0.0760    -7.5129     0.3741 O.3     
  20 O20           -2.1257    -0.6718     1.3945 O.3     
  21 O21           -0.9428    -2.4537    -0.1344 O.3     
  22 P22           -1.7459    -3.7731    -0.5887 P.3     
  23 O23           -3.1181    -3.7302    -0.0358 O.2     
  24 O24           -1.8167    -3.8314    -2.1961 O.3     
  25 O25           -0.9857    -5.0807    -0.0372 O.3     
  26 P26           -1.3983    -6.6282     0.1274 P.3     
  27 O27           -2.0790    -7.0908    -1.1026 O.2     
  28 O28           -2.3928    -6.7877     1.3834 O.3     
  29 H29           -0.5275     1.7763     0.9067 H       
  30 H30           -0.5445     1.7859    -0.8732 H       
  31 H31            1.9953     1.5007     0.8047 H       
  32 H32            0.4780     3.9106    -0.2099 H       
  33 H33            1.6929     4.8331     1.6281 H       
  34 H34            2.2103     4.5864    -1.5821 H       
  35 H35            3.3492     4.4613    -0.2044 H       
  36 H36            3.9826     2.2755    -0.7675 H       
  37 H37            6.1759     2.7737    -4.6031 H       
  38 H38            2.2333     3.5070    -5.7471 H       
  39 H39            1.5577     3.1867    -3.4244 H       
  40 H40           -0.2497    -8.4580     0.4824 H       
  41 H41           -1.6172    -0.9117     2.1813 H       
  42 H42           -0.9515    -3.8615    -2.6271 H       
  43 H43           -2.0119    -6.5028     2.2254 H       
@<TRIPOS>BOND
   1    1   18 1
   2    1    2 1
   3    1   29 1
   4    1   30 1
   5    2    3 1
   6    2    7 1
   7    2   31 1
   8    3    4 1
   9    3    5 1
  10    3   32 1
  11    4   33 1
  12    5    6 1
  13    5   34 1
  14    5   35 1
  15    6    7 1
  16    6    8 1
  17    6   36 1
  18    8    9 am
  19    8   15 1
  20    9   10 2
  21    9   11 am
  22   11   12 am
  23   11   37 1
  24   12   13 2
  25   12   14 1
  26   14   15 2
  27   14   38 1
  28   15   39 1
  29   16   17 2
  30   16   18 1
  31   16   20 1
  32   16   21 1
  33   19   26 1
  34   19   40 1
  35   20   41 1
  36   21   22 1
  37   22   23 2
  38   22   24 1
  39   22   25 1
  40   24   42 1
  41   25   26 1
  42   26   27 2
  43   26   28 1
  44   28   43 1

#	End of record

