#	Name: ASD01122031
#	Creating user name:	WinNT
#	Creation time:	15. 06. 2019 18:59

#	Modifying user name:	WinNT
#	Modification time:	15. 06. 2019 18:59

#	Program:	/corina/corina34_cracker 3.40 0067  02.08.2006

@<TRIPOS>MOLECULE
ASD01122031
  48   49    0    0    0
SMALL
NO_CHARGES


@<TRIPOS>ATOM
   1 N1            -0.0638     1.2607     0.4745 N.ar    
   2 C2            -0.0296    -0.0564     0.3935 C.ar    
   3 N3             1.0960    -0.7265     0.2566 N.ar    
   4 C4             2.2591    -0.0900     0.1936 C.ar    
   5 C5             2.2769     1.3116     0.2748 C.ar    
   6 C6             1.0511     1.9826     0.4208 C.ar    
   7 N7             3.5750    -0.4787     0.0570 N.am    
   8 C8             4.3369     0.6611     0.0583 C.2     
   9 N9             3.5721     1.7039     0.1859 N.2     
  10 N10            1.0054     3.3631     0.5057 N.pl3   
  11 P11            9.9449     0.9788    -3.3102 P.3     
  12 O12           10.5457    -0.3808    -2.8151 O.co2   
  13 O13           10.5140     2.1495    -2.4384 O.co2   
  14 O14           10.3356     1.2070    -4.8101 O.co2   
  15 O15            5.2006    -1.9487    -0.2615 O.2     
  16 C16            4.0277    -1.7431    -0.0567 C.2     
  17 C17            3.0710    -2.9003     0.0715 C.3     
  18 O18            3.5388    -3.7953     1.0825 O.3     
  19 C19            2.9841    -3.6407    -1.2646 C.3     
  20 O20            2.4389    -2.7694    -2.2574 O.3     
  21 C21            2.0816    -4.8665    -1.1107 C.3     
  22 O22            2.6268    -5.7378    -0.1179 O.3     
  23 C23            1.9947    -5.6069    -2.4468 C.3     
  24 O24            1.0617    -6.6834    -2.3351 O.3     
  25 C25            5.8380     0.6990    -0.0696 C.3     
  26 C26            6.2216     0.7967    -1.5476 C.3     
  27 C27            7.7455     0.8352    -1.6775 C.3     
  28 C28            8.1291     0.9329    -3.1554 C.3     
  29 H29           -0.9588    -0.6048     0.4414 H       
  30 H30            1.8259     3.8789     0.4646 H       
  31 H31            0.1530     3.8148     0.6064 H       
  32 H32            2.0840    -2.5272     0.3450 H       
  33 H33            4.4137    -4.1668     0.9047 H       
  34 H34            3.9811    -3.9594    -1.5689 H       
  35 H35            1.5838    -2.3865    -2.0180 H       
  36 H36            1.0846    -4.5478    -0.8065 H       
  37 H37            3.5147    -6.0612    -0.3232 H       
  38 H38            1.6629    -4.9176    -3.2233 H       
  39 H39            2.9764    -6.0025    -2.7075 H       
  40 H40            0.9556    -7.1979    -3.1470 H       
  41 H41            6.2264     1.5660     0.4646 H       
  42 H42            6.2621    -0.2103     0.3564 H       
  43 H43            5.8331    -0.0704    -2.0818 H       
  44 H44            5.7975     1.7060    -1.9736 H       
  45 H45            8.1340     1.7022    -1.1432 H       
  46 H46            8.1696    -0.0741    -1.2514 H       
  47 H47            7.7050     1.8422    -3.5815 H       
  48 H48            7.7407     0.0659    -3.6897 H       
@<TRIPOS>BOND
   1    1    2 ar
   2    1    6 ar
   3    2    3 ar
   4    2   29 1
   5    3    4 ar
   6    4    5 ar
   7    4    7 1
   8    5    6 ar
   9    5    9 1
  10    6   10 1
  11    7    8 1
  12    7   16 am
  13    8    9 2
  14    8   25 1
  15   10   30 1
  16   10   31 1
  17   11   12 ar
  18   11   13 ar
  19   11   14 ar
  20   11   28 1
  21   15   16 2
  22   16   17 1
  23   17   18 1
  24   17   19 1
  25   17   32 1
  26   18   33 1
  27   19   20 1
  28   19   21 1
  29   19   34 1
  30   20   35 1
  31   21   22 1
  32   21   23 1
  33   21   36 1
  34   22   37 1
  35   23   24 1
  36   23   38 1
  37   23   39 1
  38   24   40 1
  39   25   26 1
  40   25   41 1
  41   25   42 1
  42   26   27 1
  43   26   43 1
  44   26   44 1
  45   27   28 1
  46   27   45 1
  47   27   46 1
  48   28   47 1
  49   28   48 1

#	End of record

