#	Name: ASD00311508
#	Creating user name:	WinNT
#	Creation time:	15. 06. 2019 18:34

#	Modifying user name:	WinNT
#	Modification time:	15. 06. 2019 18:34

#	Program:	/corina/corina34_cracker 3.40 0067  02.08.2006

@<TRIPOS>MOLECULE
ASD00311508
  45   49    0    0    0
SMALL
NO_CHARGES


@<TRIPOS>ATOM
   1 C1            -0.0167     1.3776     0.0096 C.2     
   2 C2             0.0021    -0.0041     0.0020 C.2     
   3 C3             1.2588    -0.6767    -0.0131 C.2     
   4 C4             2.4316     0.0672    -0.0199 C.2     
   5 C5             2.3574     1.4751    -0.0117 C.2     
   6 N6             1.1648     2.0902     0.0022 N.am    
   7 C7            -1.3433    -0.5753     0.0118 C.2     
   8 C8            -2.3230     0.3263     0.0260 C.2     
   9 S9            -1.6792     1.9563     0.0358 S.3     
  10 O10            3.3822     2.1372    -0.0171 O.2     
  11 C11            3.7477    -0.6121    -0.0352 C.ar    
  12 C12            4.5938    -0.4747    -1.1354 C.ar    
  13 C13            5.8189    -1.1096    -1.1435 C.ar    
  14 C14            6.2082    -1.8816    -0.0635 C.ar    
  15 C15            5.3733    -2.0217     1.0307 C.ar    
  16 C16            4.1483    -1.3871     1.0531 C.ar    
  17 C17           -1.5956    -2.0345     0.0056 C.ar    
  18 C18           -2.4710    -2.5955     0.9367 C.ar    
  19 C19           -2.7057    -3.9522     0.9303 C.ar    
  20 C20           -2.0684    -4.7662    -0.0064 C.ar    
  21 C21           -1.1930    -4.2059    -0.9369 C.ar    
  22 C22           -0.9626    -2.8483    -0.9351 C.ar    
  23 C23           -1.9558    -8.4144    -0.9131 C.ar    
  24 C24           -1.6926    -7.0607    -0.9429 C.ar    
  25 C25           -2.3210    -6.2269    -0.0126 C.ar    
  26 C26           -3.1940    -6.8089     0.9119 C.ar    
  27 C27           -3.4000    -8.1723     0.8711 C.ar    
  28 N28           -2.7867    -8.9235    -0.0236 N.ar    
  29 O29            1.3086    -2.0292    -0.0204 O.3     
  30 H30            1.1326     3.0596     0.0073 H       
  31 H31           -3.3756     0.0849     0.0344 H       
  32 H32            4.2907     0.1271    -1.9794 H       
  33 H33            6.4750    -1.0040    -1.9948 H       
  34 H34            7.1678    -2.3772    -0.0747 H       
  35 H35            5.6826    -2.6259     1.8707 H       
  36 H36            3.4993    -1.4936     1.9097 H       
  37 H37           -2.9639    -1.9655     1.6624 H       
  38 H38           -3.3831    -4.3864     1.6508 H       
  39 H39           -0.6995    -4.8363    -1.6618 H       
  40 H40           -0.2886    -2.4140    -1.6586 H       
  41 H41           -1.4786    -9.0658    -1.6304 H       
  42 H42           -1.0110    -6.6508    -1.6735 H       
  43 H43           -3.6991    -6.2001     1.6471 H       
  44 H44           -4.0721    -8.6310     1.5812 H       
  45 H45            2.2059    -2.3897    -0.0307 H       
@<TRIPOS>BOND
   1    1    2 2
   2    1    6 1
   3    1    9 1
   4    2    3 1
   5    2    7 1
   6    3    4 2
   7    3   29 1
   8    4    5 1
   9    4   11 1
  10    5    6 am
  11    5   10 2
  12    6   30 1
  13    7    8 2
  14    7   17 1
  15    8    9 1
  16    8   31 1
  17   11   12 ar
  18   11   16 ar
  19   12   13 ar
  20   12   32 1
  21   13   14 ar
  22   13   33 1
  23   14   15 ar
  24   14   34 1
  25   15   16 ar
  26   15   35 1
  27   16   36 1
  28   17   18 ar
  29   17   22 ar
  30   18   19 ar
  31   18   37 1
  32   19   20 ar
  33   19   38 1
  34   20   21 ar
  35   20   25 1
  36   21   22 ar
  37   21   39 1
  38   22   40 1
  39   23   24 ar
  40   23   28 ar
  41   23   41 1
  42   24   25 ar
  43   24   42 1
  44   25   26 ar
  45   26   27 ar
  46   26   43 1
  47   27   28 ar
  48   27   44 1
  49   29   45 1

#	End of record

