#	Name: ASD01208045
#	Creating user name:	WinNT
#	Creation time:	15. 06. 2019 19:09

#	Modifying user name:	WinNT
#	Modification time:	15. 06. 2019 19:09

#	Program:	/corina/corina34_cracker 3.40 0067  02.08.2006

@<TRIPOS>MOLECULE
ASD01208045
  58   61    0    0    0
SMALL
NO_CHARGES


@<TRIPOS>ATOM
   1 C1            -0.0886     1.4347     0.0258 C.ar    
   2 C2             0.0152     0.0519    -0.0166 C.ar    
   3 C3            -1.1271    -0.7355     0.0269 C.ar    
   4 C4            -2.3760    -0.1431     0.1123 C.ar    
   5 C5            -2.4849     1.2478     0.1551 C.ar    
   6 C6            -1.3333     2.0353     0.1174 C.ar    
   7 C7            -3.8152     1.8844     0.2462 C.2     
   8 C8            -4.0562     3.2273     0.2947 C.2     
   9 N9            -5.0171     1.2271     0.2905 N.pl3   
  10 C10           -6.0214     2.1605     0.3732 C.2     
  11 C11           -5.4393     3.4093     0.3769 C.2     
  12 O12            1.0330     2.2009    -0.0171 O.3     
  13 C13            0.8494     3.6159    -0.0950 C.3     
  14 C14            2.0806     4.2552    -0.7402 C.3     
  15 O15            3.2149     4.0673     0.1084 O.3     
  16 C16            0.6587     4.1838     1.3129 C.3     
  17 O17           -1.0197    -2.0895    -0.0149 O.3     
  18 C18           -1.4887    -2.7323    -1.1147 C.ar    
  19 C19           -1.5224    -4.1239    -1.1442 C.ar    
  20 C20           -1.9391    -2.0000    -2.2059 C.ar    
  21 C21           -2.4159    -2.6483    -3.3241 C.ar    
  22 C22           -2.4465    -4.0444    -3.3609 C.ar    
  23 C23           -1.9981    -4.7793    -2.2597 C.ar    
  24 C24           -2.9571    -4.7418    -4.5574 C.2     
  25 N25           -2.9860    -6.0888    -4.5913 N.am    
  26 O26           -3.3518    -4.1010    -5.5124 O.2     
  27 C27           -7.4629     1.8773     0.4412 C.2     
  28 C28            4.4241     4.6301    -0.4045 C.3     
  29 N29           -8.4083     2.7737     0.5197 N.2     
  30 C30           -9.6442     2.3328     0.5713 C.2     
  31 C31           -9.7917     1.0044     0.5371 C.2     
  32 S32           -8.1920     0.2736     0.4221 S.3     
  33 F33           -1.0882    -4.8323    -0.0789 F       
  34 C34           -3.4928    -6.7810    -5.7788 C.3     
  35 H35            0.9876    -0.4132    -0.0839 H       
  36 H36           -3.2643    -0.7564     0.1453 H       
  37 H37           -1.4132     3.1119     0.1503 H       
  38 H38           -3.3113     4.0090     0.2736 H       
  39 H39           -5.1381     0.2650     0.2670 H       
  40 H40           -5.9571     4.3555     0.4331 H       
  41 H41           -0.0319     3.8353    -0.6977 H       
  42 H42            2.2685     3.7874    -1.7067 H       
  43 H43            1.9048     5.3217    -0.8808 H       
  44 H44            1.5400     3.9644     1.9156 H       
  45 H45            0.5187     5.2631     1.2535 H       
  46 H46           -0.2184     3.7284     1.7726 H       
  47 H47           -1.9158    -0.9207    -2.1774 H       
  48 H48           -2.7660    -2.0776    -4.1714 H       
  49 H49           -2.0202    -5.8588    -2.2845 H       
  50 H50           -2.6712    -6.6000    -3.8294 H       
  51 H51            4.2969     5.7043    -0.5381 H       
  52 H52            5.2373     4.4451     0.2974 H       
  53 H53            4.6606     4.1701    -1.3639 H       
  54 H54          -10.4893     3.0019     0.6376 H       
  55 H55          -10.7302     0.4709     0.5700 H       
  56 H56           -4.5288    -6.4909    -5.9540 H       
  57 H57           -2.8881    -6.5087    -6.6439 H       
  58 H58           -3.4387    -7.8583    -5.6222 H       
@<TRIPOS>BOND
   1    1    2 ar
   2    1   12 1
   3    1    6 ar
   4    2    3 ar
   5    2   35 1
   6    3    4 ar
   7    3   17 1
   8    4    5 ar
   9    4   36 1
  10    5    6 ar
  11    5    7 1
  12    6   37 1
  13    7    8 2
  14    7    9 1
  15    8   11 1
  16    8   38 1
  17    9   10 1
  18    9   39 1
  19   10   11 2
  20   10   27 1
  21   11   40 1
  22   12   13 1
  23   13   14 1
  24   13   16 1
  25   13   41 1
  26   14   15 1
  27   14   42 1
  28   14   43 1
  29   15   28 1
  30   16   44 1
  31   16   45 1
  32   16   46 1
  33   17   18 1
  34   18   19 ar
  35   18   20 ar
  36   19   33 1
  37   19   23 ar
  38   20   21 ar
  39   20   47 1
  40   21   22 ar
  41   21   48 1
  42   22   23 ar
  43   22   24 1
  44   23   49 1
  45   24   25 am
  46   24   26 2
  47   25   34 1
  48   25   50 1
  49   27   29 2
  50   27   32 1
  51   28   51 1
  52   28   52 1
  53   28   53 1
  54   29   30 1
  55   30   31 2
  56   30   54 1
  57   31   32 1
  58   31   55 1
  59   34   56 1
  60   34   57 1
  61   34   58 1

#	End of record

