#	Name: ASD08150608
#	Creating user name:	WinNT
#	Creation time:	15. 06. 2019 21:16

#	Modifying user name:	WinNT
#	Modification time:	15. 06. 2019 21:16

#	Program:	/corina/corina34_cracker 3.40 0067  02.08.2006

@<TRIPOS>MOLECULE
ASD08150608
  81   88    0    0    0
SMALL
NO_CHARGES


@<TRIPOS>ATOM
   1 N1            -2.0922    -0.6695     2.4425 N.am    
   2 C2            -1.5397    -1.8981     2.4548 C.2     
   3 C3            -0.2505    -2.1066     2.9857 C.2     
   4 C4             0.4554    -1.0650     3.4947 C.2     
   5 C5            -0.1225     0.2292     3.4831 C.ar    
   6 C6             0.5669     1.3436     3.9981 C.ar    
   7 N7             0.0315     2.5363     3.9861 N.ar    
   8 C8            -1.1925     2.7684     3.4880 C.ar    
   9 C9            -1.9583     1.7057     2.9485 C.ar    
  10 C10           -1.4078     0.4026     2.9473 C.ar    
  11 C11           -3.2334     1.9579     2.4327 C.ar    
  12 C12           -3.7351     3.2489     2.4553 C.ar    
  13 C13           -2.9714     4.2955     2.9904 C.ar    
  14 C14           -1.7297     4.0661     3.4956 C.ar    
  15 O15           -2.1632    -2.8424     2.0010 O.2     
  16 C16           -5.4494     3.0220     0.6544 C.ar    
  17 C17           -3.3702    -0.4877     1.9056 C.ar    
  18 C18           -3.5265    -0.2864     0.5387 C.ar    
  19 C19           -4.7851    -0.1074     0.0069 C.ar    
  20 C20           -5.9030    -0.1284     0.8413 C.ar    
  21 C21           -5.7435    -0.3305     2.2120 C.ar    
  22 C22           -4.4829    -0.5143     2.7383 C.ar    
  23 C23           -7.2577     0.0643     0.2721 C.ar    
  24 C24           -7.6789    -0.7164    -0.8051 C.ar    
  25 C25           -8.9367    -0.5379    -1.3348 C.ar    
  26 C26           -5.0869     3.5252     1.9102 C.ar    
  27 C27           -8.1133     1.0224     0.8174 C.ar    
  28 C28           -9.3718     1.2018     0.2897 C.ar    
  29 C29           -9.7921     0.4251    -0.7931 C.ar    
  30 C30          -11.1421     0.6172    -1.3604 C.2     
  31 C31           -5.9872     4.2801     2.6454 C.ar    
  32 C32           -7.2583     4.5345     2.1224 C.ar    
  33 C33           -7.6100     4.0229     0.8580 C.ar    
  34 C34           -6.6870     3.2663     0.1376 C.ar    
  35 N35          -11.3015     0.7444    -2.6926 N.am    
  36 O36          -12.1097     0.6605    -0.6256 O.2     
  37 C37          -12.6441     0.8107    -3.2894 C.3     
  38 C38          -12.7084     2.0353    -4.2083 C.3     
  39 N39          -11.6020     1.9784    -5.1730 N.3     
  40 C40          -10.3003     2.0448    -4.4954 C.3     
  41 C41          -10.1373     0.8267    -3.5877 C.3     
  42 C42          -11.7263     3.0408    -6.1799 C.3     
  43 C43           -8.4235     5.2690     2.6065 C.2     
  44 N44           -9.3531     5.1824     1.6986 N.2     
  45 N45           -8.8961     4.4286     0.6130 N.pl3   
  46 C46           -8.5313     5.9969     3.9216 C.3     
  47 C47           -6.9489    -0.3531     3.1162 C.3     
  48 F48           -6.6857    -1.1660     4.2240 F       
  49 F49           -7.2320     0.9469     3.5486 F       
  50 F50           -8.0480    -0.8612     2.4156 F       
  51 H51            0.1767    -3.0985     2.9877 H       
  52 H52            1.4430    -1.2202     3.9031 H       
  53 H53            1.5560     1.2107     4.4109 H       
  54 H54           -3.8223     1.1524     2.0196 H       
  55 H55           -3.3742     5.2975     3.0012 H       
  56 H56           -1.1554     4.8842     3.9046 H       
  57 H57           -4.7393     2.4384     0.0874 H       
  58 H58           -2.6608    -0.2699    -0.1067 H       
  59 H59           -4.9060     0.0492    -1.0548 H       
  60 H60           -4.3592    -0.6753     3.7990 H       
  61 H61           -7.0177    -1.4607    -1.2236 H       
  62 H62           -9.2623    -1.1417    -2.1689 H       
  63 H63           -7.7880     1.6231     1.6539 H       
  64 H64          -10.0339     1.9434     0.7119 H       
  65 H65           -5.7092     4.6681     3.6142 H       
  66 H66           -6.9530     2.8728    -0.8323 H       
  67 H67          -12.8319    -0.0927    -3.8696 H       
  68 H68          -13.3910     0.9048    -2.5011 H       
  69 H69          -13.6579     2.0389    -4.7436 H       
  70 H70          -12.6238     2.9431    -3.6110 H       
  71 H71           -9.5034     2.0553    -5.2389 H       
  72 H72          -10.2492     2.9525    -3.8941 H       
  73 H73           -9.2264     0.9290    -2.9978 H       
  74 H74          -10.0845    -0.0774    -4.1942 H       
  75 H75          -11.7101     4.0126    -5.6865 H       
  76 H76          -10.8946     2.9755    -6.8814 H       
  77 H77          -12.6663     2.9224    -6.7188 H       
  78 H78           -9.4074     4.2255    -0.1859 H       
  79 H79           -8.2025     7.0283     3.7941 H       
  80 H80           -9.5676     5.9851     4.2595 H       
  81 H81           -7.9019     5.5038     4.6625 H       
@<TRIPOS>BOND
   1    1    2 am
   2    1   10 1
   3    1   17 1
   4    2    3 1
   5    2   15 2
   6    3    4 2
   7    3   51 1
   8    4    5 1
   9    4   52 1
  10    5    6 ar
  11    5   10 ar
  12    6    7 ar
  13    6   53 1
  14    7    8 ar
  15    8    9 ar
  16    8   14 ar
  17    9   10 ar
  18    9   11 ar
  19   11   12 ar
  20   11   54 1
  21   12   13 ar
  22   12   26 1
  23   13   14 ar
  24   13   55 1
  25   14   56 1
  26   16   26 ar
  27   16   34 ar
  28   16   57 1
  29   17   18 ar
  30   17   22 ar
  31   18   19 ar
  32   18   58 1
  33   19   20 ar
  34   19   59 1
  35   20   21 ar
  36   20   23 1
  37   21   22 ar
  38   21   47 1
  39   22   60 1
  40   23   24 ar
  41   23   27 ar
  42   24   25 ar
  43   24   61 1
  44   25   29 ar
  45   25   62 1
  46   26   31 ar
  47   27   28 ar
  48   27   63 1
  49   28   29 ar
  50   28   64 1
  51   29   30 1
  52   30   35 am
  53   30   36 2
  54   31   32 ar
  55   31   65 1
  56   32   33 ar
  57   32   43 1
  58   33   34 ar
  59   33   45 1
  60   34   66 1
  61   35   37 1
  62   35   41 1
  63   37   38 1
  64   37   67 1
  65   37   68 1
  66   38   39 1
  67   38   69 1
  68   38   70 1
  69   39   40 1
  70   39   42 1
  71   40   41 1
  72   40   71 1
  73   40   72 1
  74   41   73 1
  75   41   74 1
  76   42   75 1
  77   42   76 1
  78   42   77 1
  79   43   44 2
  80   43   46 1
  81   44   45 1
  82   45   78 1
  83   46   79 1
  84   46   80 1
  85   46   81 1
  86   47   48 1
  87   47   49 1
  88   47   50 1

#	End of record

