#	Name: ASD01814152
#	Creating user name:	WinNT
#	Creation time:	15. 06. 2019 19:31

#	Modifying user name:	WinNT
#	Modification time:	15. 06. 2019 19:31

#	Program:	/corina/corina34_cracker 3.40 0067  02.08.2006

@<TRIPOS>MOLECULE
ASD01814152
  49   51    0    0    0
SMALL
NO_CHARGES


@<TRIPOS>ATOM
   1 C1            -0.0178     1.4616     0.0101 C.2     
   2 C2             0.0021    -0.0041     0.0020 C.2     
   3 N3            -1.1558    -0.6938     0.0094 N.am    
   4 O4             1.0642    -0.5982    -0.0113 O.2     
   5 C5            -1.1360    -2.1586     0.0013 C.3     
   6 C6            -2.5713    -2.6882     0.0122 C.3     
   7 N7            -2.5514    -4.1570     0.0041 N.3     
   8 C8            -3.9155    -4.7021     0.0142 C.3     
   9 C9            -1.7120    -7.3512     0.1644 C.2     
  10 O10           -0.9722    -8.0707    -0.7002 O.3     
  11 O11           -1.2751    -7.0914     1.2681 O.2     
  12 C12            0.3376    -8.5029    -0.2463 C.3     
  13 C13           -4.4522    -4.7679    -1.4186 C.3     
  14 C14           -3.6413    -5.7847    -2.2272 C.3     
  15 C15           -3.6434    -7.1286    -1.4812 C.3     
  16 N16           -2.9372    -6.9190    -0.1942 N.am    
  17 C17           -3.8986    -6.1211     0.6046 C.3     
  18 C18           -5.2699    -6.7722     0.3116 C.3     
  19 C19           -5.1010    -7.4393    -1.0696 C.3     
  20 C20            1.0242    -9.3012    -1.3564 C.3     
  21 C21            1.0843     2.2694     0.0039 C.2     
  22 C22            0.7766     3.6092     0.0140 C.2     
  23 C23           -0.5315     3.8910     0.0281 C.2     
  24 S24           -1.4637     2.4620     0.0216 S.3     
  25 H25           -2.0023    -0.2203     0.0200 H       
  26 H26           -0.6258    -2.5101    -0.8955 H       
  27 H27           -0.6088    -2.5197     0.8844 H       
  28 H28           -3.0815    -2.3367     0.9090 H       
  29 H29           -3.0985    -2.3271    -0.8709 H       
  30 H30           -2.0279    -4.5072    -0.7842 H       
  31 H31           -4.5601    -4.0618     0.6164 H       
  32 H32            0.9424    -7.6306     0.0012 H       
  33 H33            0.2268    -9.1310     0.6376 H       
  34 H34           -5.4990    -5.0712    -1.4002 H       
  35 H35           -4.3681    -3.7853    -1.8829 H       
  36 H36           -4.0929    -5.9125    -3.2110 H       
  37 H37           -2.6165    -5.4299    -2.3372 H       
  38 H38           -3.1942    -7.9265    -2.0725 H       
  39 H39           -3.6516    -6.1206     1.6663 H       
  40 H40           -5.5043    -7.5206     1.0685 H       
  41 H41           -6.0505    -6.0124     0.2732 H       
  42 H42           -5.7984    -7.0077    -1.7875 H       
  43 H43           -5.2523    -8.5160    -0.9922 H       
  44 H44            2.0075    -9.6256    -1.0157 H       
  45 H45            0.4194   -10.1735    -1.6040 H       
  46 H46            1.1350    -8.6731    -2.2403 H       
  47 H47            2.0965     1.8927    -0.0075 H       
  48 H48            1.5350     4.3780     0.0113 H       
  49 H49           -0.9423     4.8898     0.0377 H       
@<TRIPOS>BOND
   1    1    2 1
   2    1   21 2
   3    1   24 1
   4    2    3 am
   5    2    4 2
   6    3    5 1
   7    3   25 1
   8    5    6 1
   9    5   26 1
  10    5   27 1
  11    6    7 1
  12    6   28 1
  13    6   29 1
  14    7    8 1
  15    7   30 1
  16    8   13 1
  17    8   17 1
  18    8   31 1
  19    9   10 1
  20    9   11 2
  21    9   16 am
  22   10   12 1
  23   12   20 1
  24   12   32 1
  25   12   33 1
  26   13   14 1
  27   13   34 1
  28   13   35 1
  29   14   15 1
  30   14   36 1
  31   14   37 1
  32   15   16 1
  33   15   19 1
  34   15   38 1
  35   16   17 1
  36   17   18 1
  37   17   39 1
  38   18   19 1
  39   18   40 1
  40   18   41 1
  41   19   42 1
  42   19   43 1
  43   20   44 1
  44   20   45 1
  45   20   46 1
  46   21   22 1
  47   21   47 1
  48   22   23 2
  49   22   48 1
  50   23   24 1
  51   23   49 1

#	End of record

