#	Name: ASD01900414
#	Creating user name:	WinNT
#	Creation time:	15. 06. 2019 19:51

#	Modifying user name:	WinNT
#	Modification time:	15. 06. 2019 19:51

#	Program:	/corina/corina34_cracker 3.40 0067  02.08.2006

@<TRIPOS>MOLECULE
ASD01900414
  25   27    0    0    0
SMALL
NO_CHARGES


@<TRIPOS>ATOM
   1 C1            -0.0294     1.3946     0.1772 C.ar    
   2 C2            -0.0008    -0.0061     0.0376 C.ar    
   3 C3             1.2155    -0.6750     0.1711 C.ar    
   4 C4             2.3463     0.0721     0.4363 C.ar    
   5 C5             2.2444     1.4514     0.5615 C.ar    
   6 N6             1.0907     2.0663     0.4328 N.ar    
   7 N7            -2.1213     0.7106    -0.2414 N.2     
   8 N8            -1.2846    -0.4100    -0.2177 N.pl3   
   9 C9            -1.4269     1.7925    -0.0084 C.2     
  10 N10           -1.9266     3.0975     0.0450 N.pl3   
  11 C11           -3.7912     4.5246    -0.5374 C.ar    
  12 C12           -3.3034     3.3226    -0.0405 C.ar    
  13 C13           -4.2060     2.3447     0.3711 C.ar    
  14 C14           -5.5615     2.6140     0.2667 C.ar    
  15 C15           -5.9706     3.8368    -0.2393 C.ar    
  16 N16           -5.0888     4.7416    -0.6199 N.ar    
  17 Cl17          -7.6663     4.1837    -0.3741 Cl      
  18 Cl18          -6.7326     1.4328     0.7636 Cl      
  19 H19            1.2715    -1.7488     0.0702 H       
  20 H20            3.3045    -0.4138     0.5461 H       
  21 H21            3.1320     2.0306     0.7693 H       
  22 H22           -1.5682    -1.3267    -0.3593 H       
  23 H23           -1.3178     3.8464     0.1412 H       
  24 H24           -3.1000     5.2912    -0.8550 H       
  25 H25           -3.8581     1.3997     0.7615 H       
@<TRIPOS>BOND
   1    1    2 ar
   2    1    6 ar
   3    1    9 1
   4    2    3 ar
   5    2    8 1
   6    3    4 ar
   7    3   19 1
   8    4    5 ar
   9    4   20 1
  10    5    6 ar
  11    5   21 1
  12    7    8 1
  13    7    9 2
  14    8   22 1
  15    9   10 1
  16   10   12 1
  17   10   23 1
  18   11   12 ar
  19   11   16 ar
  20   11   24 1
  21   12   13 ar
  22   13   14 ar
  23   13   25 1
  24   14   15 ar
  25   14   18 1
  26   15   16 ar
  27   15   17 1

#	End of record

