#	Name: ASD01912034
#	Creating user name:	WinNT
#	Creation time:	15. 06. 2019 19:58

#	Modifying user name:	WinNT
#	Modification time:	15. 06. 2019 19:58

#	Program:	/corina/corina34_cracker 3.40 0067  02.08.2006

@<TRIPOS>MOLECULE
ASD01912034
  41   45    0    0    0
SMALL
NO_CHARGES


@<TRIPOS>ATOM
   1 C1            -0.0160     1.3253     0.0093 C.ar    
   2 N2             0.0021    -0.0041     0.0020 N.ar    
   3 C3             1.1484    -0.6659    -0.0125 C.ar    
   4 N4             2.3208    -0.0447    -0.0203 N.ar    
   5 C5             2.3954     1.2732    -0.0140 C.ar    
   6 C6             1.2124     2.0218     0.0013 C.ar    
   7 C7             1.2470     3.4533     0.0082 C.1     
   8 N8             1.2745     4.5890     0.0137 N.1     
   9 N9             1.1232    -2.0497    -0.0192 N.pl3   
  10 C10            2.3053    -2.7611    -0.0343 C.2     
  11 O11            2.3970    -4.1026    -0.0419 O.3     
  12 C12            3.7080    -4.4360    -0.0564 C.ar    
  13 C13            4.4233    -3.2291    -0.0573 C.ar    
  14 N14            3.5000    -2.2290    -0.0489 N.2     
  15 C15            4.3907    -5.6416    -0.0698 C.ar    
  16 C16            5.7707    -5.6505    -0.0839 C.ar    
  17 C17            6.4815    -4.4600    -0.0848 C.ar    
  18 C18            5.8186    -3.2525    -0.0714 C.ar    
  19 C19           -4.9133     4.1759     0.0744 C.ar    
  20 C20           -5.9848     3.6766    -0.6015 C.ar    
  21 C21           -5.8941     2.4781    -1.3060 C.ar    
  22 C22           -4.7309     1.7718    -1.3393 C.ar    
  23 C23           -3.6029     2.2561    -0.6538 C.ar    
  24 C24           -2.3884     1.5532    -0.6673 C.ar    
  25 C25           -1.3002     2.0618     0.0195 C.ar    
  26 C26           -1.4043     3.2720     0.7270 C.ar    
  27 C27           -2.5706     3.9661     0.7518 C.ar    
  28 C28           -3.6957     3.4759     0.0637 C.ar    
  29 H29            3.3558     1.7672    -0.0201 H       
  30 H30            0.2745    -2.5194    -0.0133 H       
  31 H31            3.8438    -6.5729    -0.0688 H       
  32 H32            6.3008    -6.5915    -0.0940 H       
  33 H33            7.5613    -4.4796    -0.0960 H       
  34 H34            6.3765    -2.3278    -0.0719 H       
  35 H35           -4.9982     5.1083     0.6126 H       
  36 H36           -6.9194     4.2177    -0.5909 H       
  37 H37           -6.7592     2.1038    -1.8332 H       
  38 H38           -4.6749     0.8439    -1.8892 H       
  39 H39           -2.3040     0.6225    -1.2087 H       
  40 H40           -0.5452     3.6543     1.2583 H       
  41 H41           -2.6350     4.8944     1.2999 H       
@<TRIPOS>BOND
   1    1    2 ar
   2    1    6 ar
   3    1   25 1
   4    2    3 ar
   5    3    4 ar
   6    3    9 1
   7    4    5 ar
   8    5    6 ar
   9    5   29 1
  10    6    7 1
  11    7    8 3
  12    9   10 1
  13    9   30 1
  14   10   11 1
  15   10   14 2
  16   11   12 1
  17   12   13 ar
  18   12   15 ar
  19   13   14 1
  20   13   18 ar
  21   15   16 ar
  22   15   31 1
  23   16   17 ar
  24   16   32 1
  25   17   18 ar
  26   17   33 1
  27   18   34 1
  28   19   20 ar
  29   19   28 ar
  30   19   35 1
  31   20   21 ar
  32   20   36 1
  33   21   22 ar
  34   21   37 1
  35   22   23 ar
  36   22   38 1
  37   23   24 ar
  38   23   28 ar
  39   24   25 ar
  40   24   39 1
  41   25   26 ar
  42   26   27 ar
  43   26   40 1
  44   27   28 ar
  45   27   41 1

#	End of record

