#	Name: ASD01918391
#	Creating user name:	WinNT
#	Creation time:	15. 06. 2019 20:11

#	Modifying user name:	WinNT
#	Modification time:	15. 06. 2019 20:11

#	Program:	/corina/corina34_cracker 3.40 0067  02.08.2006

@<TRIPOS>MOLECULE
ASD01918391
  34   36    0    0    0
SMALL
NO_CHARGES


@<TRIPOS>ATOM
   1 O1             0.0021    -0.0041     0.0020 O.2     
   2 C2            -0.0144     1.2086     0.0087 C.2     
   3 C3             1.2803     1.9798     0.0005 C.3     
   4 C4             2.4389     1.0162    -0.0158 C.ar    
   5 C5             3.3971     1.1213    -1.0077 C.ar    
   6 C6             4.4600     0.2353    -1.0196 C.ar    
   7 C7             4.5217    -0.7404    -0.0170 C.ar    
   8 C8             3.5139    -0.7795     0.9485 C.ar    
   9 N9             2.5253     0.0896     0.9197 N.ar    
  10 C10            5.5998    -1.6824     0.0170 C.1     
  11 N11            6.4550    -2.4296     0.0440 N.1     
  12 C12           -1.2973     1.9262     0.0187 C.2     
  13 C13           -2.5902     1.3422     0.0274 C.2     
  14 C14           -3.4494     2.3782     0.0357 C.2     
  15 C15           -4.9563     2.3245     0.0487 C.3     
  16 C16           -5.4811     3.7104     0.4466 C.3     
  17 C17           -4.7689     4.7753    -0.3924 C.3     
  18 C18           -3.3019     4.8723     0.0363 C.3     
  19 N19           -2.7153     3.5245     0.0314 N.pl3   
  20 N20           -1.4640     3.2366     0.0270 N.2     
  21 H21            1.3211     2.6119    -0.8866 H       
  22 H22            1.3381     2.6023     0.8933 H       
  23 H23            3.3163     1.8868    -1.7653 H       
  24 H24            5.2220     0.2945    -1.7826 H       
  25 H25            3.5479    -1.5262     1.7280 H       
  26 H26           -2.8333     0.2900     0.0270 H       
  27 H27           -5.3236     2.0630    -0.9437 H       
  28 H28           -5.2917     1.5822     0.7730 H       
  29 H29           -6.5545     3.7601     0.2637 H       
  30 H30           -5.2818     3.8859     1.5038 H       
  31 H31           -4.8216     4.5020    -1.4463 H       
  32 H32           -5.2549     5.7396    -0.2435 H       
  33 H33           -2.7588     5.5094    -0.6618 H       
  34 H34           -3.2418     5.2930     1.0400 H       
@<TRIPOS>BOND
   1    1    2 2
   2    2    3 1
   3    2   12 1
   4    3    4 1
   5    3   21 1
   6    3   22 1
   7    4    9 ar
   8    4    5 ar
   9    5    6 ar
  10    5   23 1
  11    6    7 ar
  12    6   24 1
  13    7    8 ar
  14    7   10 1
  15    8    9 ar
  16    8   25 1
  17   10   11 3
  18   12   20 2
  19   12   13 1
  20   13   14 2
  21   13   26 1
  22   14   19 1
  23   14   15 1
  24   15   16 1
  25   15   27 1
  26   15   28 1
  27   16   17 1
  28   16   29 1
  29   16   30 1
  30   17   18 1
  31   17   31 1
  32   17   32 1
  33   18   19 1
  34   18   33 1
  35   18   34 1
  36   19   20 1

#	End of record

