#	Name: ASD01840179
#	Creating user name:	WinNT
#	Creation time:	15. 06. 2019 19:37

#	Modifying user name:	WinNT
#	Modification time:	15. 06. 2019 19:37

#	Program:	/corina/corina34_cracker 3.40 0067  02.08.2006

@<TRIPOS>MOLECULE
ASD01840179
  47   50    0    0    0
SMALL
NO_CHARGES


@<TRIPOS>ATOM
   1 C1            -1.7761     1.3584    -0.0416 C.3     
   2 C2            -1.8712    -0.1779    -0.0222 C.3     
   3 N3            -1.3183    -0.8180    -1.2183 N.am    
   4 C4            -1.7529    -2.0379    -1.5917 C.2     
   5 C5            -1.2011    -2.6769    -2.7856 C.2     
   6 O6            -2.6050    -2.6079    -0.9349 O.2     
   7 C7            -1.5716    -3.8987    -3.2425 C.2     
   8 C8            -0.8780    -4.3142    -4.4476 C.ar    
   9 C9             0.0404    -3.3534    -4.8914 C.ar    
  10 S10            0.0208    -1.9610    -3.8183 S.3     
  11 C11           -0.9952    -5.5025    -5.2042 C.ar    
  12 C12           -0.2031    -5.6385    -6.3231 C.ar    
  13 N13            0.6366    -4.6764    -6.6649 N.ar    
  14 N14            0.7559    -3.5928    -5.9929 N.ar    
  15 C15           -0.2938    -6.8886    -7.1599 C.3     
  16 C16           -1.9579    -6.5886    -4.7986 C.3     
  17 N17           -2.5294    -4.6824    -2.6134 N.pl3   
  18 C18           -0.8894    -0.1252     1.1623 C.3     
  19 N19           -0.4665     1.1870     0.6253 N.3     
  20 C20           -0.3028     2.1157     1.6491 C.ar    
  21 C21           -1.2863     2.2888     2.6195 C.ar    
  22 C22            0.8540     2.8927     1.7322 C.ar    
  23 C23            0.9809     3.8014     2.7602 C.ar    
  24 N24            0.0262     3.9439     3.6614 N.ar    
  25 C25           -1.0841     3.2236     3.6222 C.ar    
  26 O26           -2.0342     3.4027     4.5743 O.3     
  27 C27           -1.7673     4.3809     5.5812 C.3     
  28 H28           -1.7066     1.7815    -1.0437 H       
  29 H29           -2.5237     1.8525     0.5790 H       
  30 H30           -2.8600    -0.5529     0.2418 H       
  31 H31           -0.6394    -0.3639    -1.7416 H       
  32 H32           -1.0492    -6.7536    -7.9340 H       
  33 H33            0.6721    -7.0852    -7.6252 H       
  34 H34           -0.5699    -7.7311    -6.5258 H       
  35 H35           -2.9491    -6.3606    -5.1904 H       
  36 H36           -1.6190    -7.5433    -5.2008 H       
  37 H37           -2.0018    -6.6476    -3.7111 H       
  38 H38           -2.7567    -4.5184    -1.6848 H       
  39 H39           -2.9714    -5.3940    -3.1024 H       
  40 H40           -1.3776    -0.0650     2.1350 H       
  41 H41           -0.1114    -0.8876     1.1220 H       
  42 H42           -2.1934     1.7035     2.5909 H       
  43 H43            1.6401     2.7826     0.9999 H       
  44 H44            1.8736     4.4052     2.8302 H       
  45 H45           -0.8599     4.1091     6.1204 H       
  46 H46           -1.6337     5.3564     5.1136 H       
  47 H47           -2.6048     4.4234     6.2775 H       
@<TRIPOS>BOND
   1    1    2 1
   2    1   19 1
   3    1   28 1
   4    1   29 1
   5    2    3 1
   6    2   18 1
   7    2   30 1
   8    3    4 am
   9    3   31 1
  10    4    5 1
  11    4    6 2
  12    5    7 2
  13    5   10 1
  14    7    8 1
  15    7   17 1
  16    8    9 ar
  17    8   11 ar
  18    9   10 1
  19    9   14 ar
  20   11   12 ar
  21   11   16 1
  22   12   13 ar
  23   12   15 1
  24   13   14 ar
  25   15   32 1
  26   15   33 1
  27   15   34 1
  28   16   35 1
  29   16   36 1
  30   16   37 1
  31   17   38 1
  32   17   39 1
  33   18   19 1
  34   18   40 1
  35   18   41 1
  36   19   20 1
  37   20   22 ar
  38   20   21 ar
  39   21   25 ar
  40   21   42 1
  41   22   23 ar
  42   22   43 1
  43   23   24 ar
  44   23   44 1
  45   24   25 ar
  46   25   26 1
  47   26   27 1
  48   27   45 1
  49   27   46 1
  50   27   47 1

#	End of record

