#	Name: ASD03731294
#	Creating user name:	WinNT
#	Creation time:	15. 06. 2019 20:45

#	Modifying user name:	WinNT
#	Modification time:	15. 06. 2019 20:45

#	Program:	/corina/corina34_cracker 3.40 0067  02.08.2006

@<TRIPOS>MOLECULE
ASD03731294
  57   62    0    0    0
SMALL
NO_CHARGES


@<TRIPOS>ATOM
   1 N1            -0.0162     1.3436     0.0094 N.am    
   2 C2            -0.1469     0.0022     0.0234 C.2     
   3 O3             0.8373    -0.7055    -0.0717 O.2     
   4 N4            -1.3684    -0.5547     0.1426 N.am    
   5 C5            -1.5104    -2.0127     0.1578 C.3     
   6 C6            -2.9887    -2.3796     0.3018 C.3     
   7 O7             1.4288    -7.7833     2.0271 O.3     
   8 C8             1.7191    -9.1768     2.2435 C.3     
   9 O9             0.5296    -9.6794     2.8801 O.3     
  10 C10           -0.4844    -8.8721     2.4502 C.ar    
  11 C11            0.0692    -7.7059     1.9266 C.ar    
  12 C12           -1.8573    -9.0411     2.4624 C.ar    
  13 C13           -2.6941    -8.0513     1.9557 C.ar    
  14 C14           -2.1298    -6.8872     1.4430 C.ar    
  15 C15           -0.7610    -6.7183     1.4237 C.ar    
  16 O16           -4.0543    -8.0254     1.8581 O.3     
  17 C17           -3.2741    -6.0124     1.0056 C.3     
  18 C18           -4.4917    -6.6652     1.6741 C.3     
  19 N19           -3.1308    -3.8377     0.3170 N.am    
  20 C20           -3.0960    -4.5855     1.4379 C.2     
  21 C21           -3.4155    -5.9612    -0.4868 C.ar    
  22 C22           -3.6035    -6.9191    -1.4580 C.ar    
  23 C23           -3.6994    -6.5483    -2.7875 C.ar    
  24 C24           -3.6053    -5.2139    -3.1385 C.ar    
  25 C25           -3.4160    -4.2508    -2.1694 C.ar    
  26 C26           -3.3188    -4.6148    -0.8285 C.ar    
  27 O27           -2.9499    -4.1844     2.5732 O.2     
  28 C28            1.2579     1.9224    -0.0005 C.ar    
  29 C29            1.4805     3.1026    -0.6977 C.ar    
  30 C30            2.7391     3.6713    -0.7056 C.ar    
  31 C31            3.7770     3.0666    -0.0206 C.ar    
  32 C32            3.5587     1.8912     0.6742 C.ar    
  33 C33            2.3008     1.3209     0.6915 C.ar    
  34 C34            5.1491     3.6897    -0.0318 C.3     
  35 H35           -0.8053     1.9077     0.0023 H       
  36 H36           -2.1535     0.0099     0.2184 H       
  37 H37           -1.1227    -2.4252    -0.7737 H       
  38 H38           -0.9505    -2.4236     0.9979 H       
  39 H39           -3.3764    -1.9671     1.2333 H       
  40 H40           -3.5486    -1.9688    -0.5383 H       
  41 H41            1.8890    -9.6846     1.2940 H       
  42 H42            2.5820    -9.2909     2.8996 H       
  43 H43           -2.2826    -9.9473     2.8678 H       
  44 H44           -0.3357    -5.8133     1.0158 H       
  45 H45           -5.3617    -6.6236     1.0188 H       
  46 H46           -4.7054    -6.1941     2.6335 H       
  47 H47           -3.6765    -7.9606    -1.1817 H       
  48 H48           -3.8477    -7.2992    -3.5495 H       
  49 H49           -3.6800    -4.9245    -4.1763 H       
  50 H50           -3.3429    -3.2108    -2.4513 H       
  51 H51            0.6704     3.5750    -1.2334 H       
  52 H52            2.9129     4.5892    -1.2476 H       
  53 H53            4.3714     1.4211     1.2079 H       
  54 H54            2.1297     0.4056     1.2386 H       
  55 H55            5.2409     4.3813     0.8057 H       
  56 H56            5.9037     2.9083     0.0579 H       
  57 H57            5.2951     4.2301    -0.9670 H       
@<TRIPOS>BOND
   1    1    2 am
   2    1   28 1
   3    1   35 1
   4    2    3 2
   5    2    4 am
   6    4    5 1
   7    4   36 1
   8    5    6 1
   9    5   37 1
  10    5   38 1
  11    6   19 1
  12    6   39 1
  13    6   40 1
  14    7    8 1
  15    7   11 1
  16    8    9 1
  17    8   41 1
  18    8   42 1
  19    9   10 1
  20   10   11 ar
  21   10   12 ar
  22   11   15 ar
  23   12   13 ar
  24   12   43 1
  25   13   14 ar
  26   13   16 1
  27   14   15 ar
  28   14   17 1
  29   15   44 1
  30   16   18 1
  31   17   18 1
  32   17   20 1
  33   17   21 1
  34   18   45 1
  35   18   46 1
  36   19   20 am
  37   19   26 1
  38   20   27 2
  39   21   22 ar
  40   21   26 ar
  41   22   23 ar
  42   22   47 1
  43   23   24 ar
  44   23   48 1
  45   24   25 ar
  46   24   49 1
  47   25   26 ar
  48   25   50 1
  49   28   29 ar
  50   28   33 ar
  51   29   30 ar
  52   29   51 1
  53   30   31 ar
  54   30   52 1
  55   31   32 ar
  56   31   34 1
  57   32   33 ar
  58   32   53 1
  59   33   54 1
  60   34   55 1
  61   34   56 1
  62   34   57 1

#	End of record

