#	Name: ASD00311159
#	Creating user name:	WinNT
#	Creation time:	15. 06. 2019 18:34

#	Modifying user name:	WinNT
#	Modification time:	15. 06. 2019 18:34

#	Program:	/corina/corina34_cracker 3.40 0067  02.08.2006

@<TRIPOS>MOLECULE
ASD00311159
  35   38    0    0    0
SMALL
NO_CHARGES


@<TRIPOS>ATOM
   1 C1            -0.0167     1.3775     0.0096 C.2     
   2 C2             0.0021    -0.0041     0.0020 C.2     
   3 C3             1.2586    -0.6767    -0.0136 C.2     
   4 C4             2.4315     0.0671    -0.0208 C.2     
   5 C5             2.3575     1.4749    -0.0126 C.2     
   6 N6             1.1650     2.0901     0.0022 N.am    
   7 C7            -1.3435    -0.5755     0.0123 C.2     
   8 C8            -2.3233     0.3267     0.0268 C.2     
   9 S9            -1.6791     1.9565     0.0358 S.3     
  10 O10            3.3825     2.1370    -0.0188 O.2     
  11 C11            4.1345    -1.3832    -1.1328 C.ar    
  12 C12            3.7476    -0.6124    -0.0366 C.ar    
  13 C13            4.6231    -0.4913     1.0472 C.ar    
  14 C14            5.8412    -1.1456     0.9831 C.ar    
  15 C15            6.1508    -1.8910    -0.1398 C.ar    
  16 N16            5.3047    -1.9872    -1.1475 N.ar    
  17 C17           -1.5961    -2.0354     0.0065 C.ar    
  18 C18           -2.2067    -2.6446     1.1023 C.ar    
  19 C19           -2.4397    -4.0046     1.0909 C.ar    
  20 C20           -2.0685    -4.7636    -0.0045 C.ar    
  21 C21           -1.4621    -4.1650    -1.0944 C.ar    
  22 C22           -1.2294    -2.8049    -1.0972 C.ar    
  23 O23            1.3083    -2.0293    -0.0209 O.3     
  24 Cl24          -4.0154    -0.0609     0.0410 Cl      
  25 H25            1.1328     3.0595     0.0073 H       
  26 H26            3.4668    -1.4893    -1.9750 H       
  27 H27            4.3558     0.0979     1.9120 H       
  28 H28            6.5426    -1.0744     1.8013 H       
  29 H29            7.1006    -2.4023    -0.1929 H       
  30 H30           -2.4962    -2.0531     1.9584 H       
  31 H31           -2.9125    -4.4775     1.9390 H       
  32 H32           -2.2527    -5.8278    -0.0088 H       
  33 H33           -1.1739    -4.7629    -1.9464 H       
  34 H34           -0.7599    -2.3380    -1.9504 H       
  35 H35            2.2056    -2.3898    -0.0315 H       
@<TRIPOS>BOND
   1    1    2 2
   2    1    6 1
   3    1    9 1
   4    2    3 1
   5    2    7 1
   6    3    4 2
   7    3   23 1
   8    4    5 1
   9    4   12 1
  10    5    6 am
  11    5   10 2
  12    6   25 1
  13    7    8 2
  14    7   17 1
  15    8    9 1
  16    8   24 1
  17   11   12 ar
  18   11   16 ar
  19   11   26 1
  20   12   13 ar
  21   13   14 ar
  22   13   27 1
  23   14   15 ar
  24   14   28 1
  25   15   16 ar
  26   15   29 1
  27   17   18 ar
  28   17   22 ar
  29   18   19 ar
  30   18   30 1
  31   19   20 ar
  32   19   31 1
  33   20   21 ar
  34   20   32 1
  35   21   22 ar
  36   21   33 1
  37   22   34 1
  38   23   35 1

#	End of record

