#	Name: ASD01880991
#	Creating user name:	WinNT
#	Creation time:	15. 06. 2019 19:41

#	Modifying user name:	WinNT
#	Modification time:	15. 06. 2019 19:41

#	Program:	/corina/corina34_cracker 3.40 0067  02.08.2006

@<TRIPOS>MOLECULE
ASD01880991
  46   49    0    0    0
SMALL
NO_CHARGES


@<TRIPOS>ATOM
   1 N1             0.0644     1.3752    -0.6399 N.ar    
   2 C2             0.1102     0.0793    -0.8733 C.ar    
   3 N3             1.2171    -0.6174    -0.7115 N.ar    
   4 C4             2.3362    -0.0345    -0.3040 C.ar    
   5 C5             2.3330     1.3258    -0.0471 C.ar    
   6 C6             1.1452     2.0302    -0.2289 C.ar    
   7 C7             3.5832     2.0269     0.4181 C.3     
   8 O8             4.3189     2.4912    -0.7156 O.3     
   9 C9             5.4800     3.1492    -0.4693 C.ar    
  10 C10            6.2457     3.6280    -1.5284 C.ar    
  11 C11            7.4196     4.2938    -1.2791 C.ar    
  12 C12            7.8539     4.4955     0.0355 C.ar    
  13 C13            7.0810     4.0125     1.0968 C.ar    
  14 C14            5.8998     3.3490     0.8397 C.ar    
  15 C15            8.4590     4.9245    -2.1720 C.3     
  16 N16            9.4824     5.4805    -1.2795 N.am    
  17 C17            9.1289     5.2306    -0.0071 C.2     
  18 O18            9.7708     5.5645     0.9701 O.2     
  19 Cl19           3.7866    -0.9653    -0.0948 Cl      
  20 Cl20           7.6047     4.2532     2.7343 Cl      
  21 O21            1.0925     3.3633     0.0092 O.3     
  22 C22           -0.1151     3.9802    -0.0805 C.ar    
  23 C23           -1.0463     3.8363     0.9379 C.ar    
  24 C24           -2.2731     4.4645     0.8443 C.ar    
  25 C25           -2.5735     5.2357    -0.2634 C.ar    
  26 C26           -1.6473     5.3803    -1.2798 C.ar    
  27 C27           -0.4166     4.7597    -1.1880 C.ar    
  28 C28           10.3918     7.6887    -1.8073 C.3     
  29 C29           10.6905     6.1916    -1.7053 C.3     
  30 H30           -0.7844    -0.4261    -1.2061 H       
  31 H31            3.3117     2.8747     1.0471 H       
  32 H32            4.1979     1.3321     0.9904 H       
  33 H33            5.9164     3.4754    -2.5456 H       
  34 H34            5.3028     2.9763     1.6589 H       
  35 H35            8.9001     4.1706    -2.8242 H       
  36 H36            8.0093     5.7190    -2.7675 H       
  37 H37           -0.8124     3.2335     1.8029 H       
  38 H38           -2.9983     4.3528     1.6367 H       
  39 H39           -3.5333     5.7257    -0.3349 H       
  40 H40           -1.8847     5.9827    -2.1443 H       
  41 H41            0.3064     4.8729    -1.9822 H       
  42 H42           11.2906     8.2178    -2.1241 H       
  43 H43            9.5981     7.8520    -2.5364 H       
  44 H44           10.0739     8.0629    -0.8342 H       
  45 H45           11.4842     6.0283    -0.9762 H       
  46 H46           11.0084     5.8174    -2.6784 H       
@<TRIPOS>BOND
   1    1    2 ar
   2    1    6 ar
   3    2    3 ar
   4    2   30 1
   5    3    4 ar
   6    4    5 ar
   7    4   19 1
   8    5    6 ar
   9    5    7 1
  10    6   21 1
  11    7    8 1
  12    7   31 1
  13    7   32 1
  14    8    9 1
  15    9   10 ar
  16    9   14 ar
  17   10   11 ar
  18   10   33 1
  19   11   12 ar
  20   11   15 1
  21   12   13 ar
  22   12   17 1
  23   13   14 ar
  24   13   20 1
  25   14   34 1
  26   15   16 1
  27   15   35 1
  28   15   36 1
  29   16   17 am
  30   16   29 1
  31   17   18 2
  32   21   22 1
  33   22   23 ar
  34   22   27 ar
  35   23   24 ar
  36   23   37 1
  37   24   25 ar
  38   24   38 1
  39   25   26 ar
  40   25   39 1
  41   26   27 ar
  42   26   40 1
  43   27   41 1
  44   28   29 1
  45   28   42 1
  46   28   43 1
  47   28   44 1
  48   29   45 1
  49   29   46 1

#	End of record

