#	Name: ASD06170342
#	Creating user name:	WinNT
#	Creation time:	15. 06. 2019 21:05

#	Modifying user name:	WinNT
#	Modification time:	15. 06. 2019 21:05

#	Program:	/corina/corina34_cracker 3.40 0067  02.08.2006

@<TRIPOS>MOLECULE
ASD06170342
  66   70    0    0    0
SMALL
NO_CHARGES


@<TRIPOS>ATOM
   1 N1            -0.0577     1.2413    -0.0163 N.am    
   2 N2            -0.0285    -0.1250     0.2784 N.pl3   
   3 C3             1.2323    -0.5883     0.1823 C.2     
   4 C4             2.0580     0.4591    -0.1765 C.2     
   5 C5             1.1973     1.6461    -0.3016 C.2     
   6 C6             3.5090     0.3998    -0.3909 C.2     
   7 O7             4.1019    -0.6539    -0.2530 O.2     
   8 N8             4.1845     1.5125    -0.7405 N.am    
   9 C9            -1.1964    -0.9330     0.6384 C.3     
  10 C10            5.5841     1.4980    -0.7811 C.ar    
  11 C11            6.2592     0.3117    -1.0358 C.ar    
  12 C12            8.3531     1.4723    -0.8619 C.ar    
  13 C13            7.6775     2.6578    -0.6133 C.ar    
  14 C14            6.2971     2.6714    -0.5724 C.ar    
  15 O15            9.7124     1.4600    -0.9020 O.3     
  16 N16           11.5157     1.0911    -4.5926 N.ar    
  17 C17           12.2973     1.2872    -3.5241 C.ar    
  18 C18           11.7178     1.4191    -2.2385 C.ar    
  19 C19           10.3123     1.3400    -2.1115 C.ar    
  20 C20            9.5674     1.1357    -3.2600 C.ar    
  21 C21           10.2097     1.0160    -4.4856 C.ar    
  22 O22            1.5485     2.7715    -0.6032 O.2     
  23 C23           -1.1978     2.0515    -0.0206 C.ar    
  24 C24           12.5389     1.6237    -1.1201 C.ar    
  25 C25           13.8892     1.6945    -1.2749 C.ar    
  26 C26           14.4718     1.5656    -2.5390 C.ar    
  27 C27           13.6929     1.3645    -3.6561 C.ar    
  28 C28           -2.1214     1.9586     1.0125 C.ar    
  29 C29           -3.2459     2.7605     1.0055 C.ar    
  30 C30           -3.4529     3.6547    -0.0288 C.ar    
  31 C31           -2.5354     3.7493    -1.0591 C.ar    
  32 C32           -1.4058     2.9548    -1.0549 C.ar    
  33 O33           15.8220     1.6405    -2.6667 O.3     
  34 C34           16.5760     1.8512    -1.4712 C.3     
  35 C35           -1.7989    -1.5500    -0.6254 C.3     
  36 C36           -3.0185    -2.3938    -0.2494 C.3     
  37 C37            1.6688    -2.0100     0.4258 C.3     
  38 F38           -0.8447    -2.3613    -1.2487 F       
  39 C39            7.6412     0.2986    -1.0762 C.ar    
  40 F40            8.2991    -0.8552    -1.3234 F       
  41 H41            3.7012     2.3232    -0.9640 H       
  42 H42           -0.8927    -1.7267     1.3210 H       
  43 H43           -1.9398    -0.3009     1.1241 H       
  44 H44            5.7051    -0.6003    -1.2019 H       
  45 H45            8.2312     3.5708    -0.4512 H       
  46 H46            5.7719     3.5949    -0.3784 H       
  47 H47            8.4910     1.0692    -3.2033 H       
  48 H48            9.6182     0.8572    -5.3751 H       
  49 H49           12.1007     1.7251    -0.1382 H       
  50 H50           14.5179     1.8524    -0.4111 H       
  51 H51           14.1528     1.2659    -4.6283 H       
  52 H52           -1.9607     1.2599     1.8201 H       
  53 H53           -3.9645     2.6887     1.8085 H       
  54 H54           -4.3332     4.2804    -0.0321 H       
  55 H55           -2.7003     4.4482    -1.8657 H       
  56 H56           -0.6894     3.0294    -1.8596 H       
  57 H57           17.6380     1.8911    -1.7137 H       
  58 H58           16.2727     2.7917    -1.0114 H       
  59 H59           16.3925     1.0314    -0.7767 H       
  60 H60           -2.1026    -0.7563    -1.3079 H       
  61 H61           -3.7619    -1.7617     0.2362 H       
  62 H62           -3.4478    -2.8334    -1.1498 H       
  63 H63           -2.7148    -3.1875     0.4331 H       
  64 H64            1.6184    -2.5705    -0.5077 H       
  65 H65            2.6930    -2.0168     0.7988 H       
  66 H66            1.0108    -2.4710     1.1624 H       
@<TRIPOS>BOND
   1    1    2 1
   2    1    5 am
   3    1   23 1
   4    2    3 1
   5    2    9 1
   6    3    4 2
   7    3   37 1
   8    4    5 1
   9    4    6 1
  10    5   22 2
  11    6    7 2
  12    6    8 am
  13    8   10 1
  14    8   41 1
  15    9   35 1
  16    9   42 1
  17    9   43 1
  18   10   11 ar
  19   10   14 ar
  20   11   39 ar
  21   11   44 1
  22   12   13 ar
  23   12   15 1
  24   12   39 ar
  25   13   14 ar
  26   13   45 1
  27   14   46 1
  28   15   19 1
  29   16   17 ar
  30   16   21 ar
  31   17   18 ar
  32   17   27 ar
  33   18   19 ar
  34   18   24 ar
  35   19   20 ar
  36   20   21 ar
  37   20   47 1
  38   21   48 1
  39   23   28 ar
  40   23   32 ar
  41   24   25 ar
  42   24   49 1
  43   25   26 ar
  44   25   50 1
  45   26   27 ar
  46   26   33 1
  47   27   51 1
  48   28   29 ar
  49   28   52 1
  50   29   30 ar
  51   29   53 1
  52   30   31 ar
  53   30   54 1
  54   31   32 ar
  55   31   55 1
  56   32   56 1
  57   33   34 1
  58   34   57 1
  59   34   58 1
  60   34   59 1
  61   35   36 1
  62   35   38 1
  63   35   60 1
  64   36   61 1
  65   36   62 1
  66   36   63 1
  67   37   64 1
  68   37   65 1
  69   37   66 1
  70   39   40 1

#	End of record

