#	Name: ASD03430707
#	Creating user name:	WinNT
#	Creation time:	15. 06. 2019 20:41

#	Modifying user name:	WinNT
#	Modification time:	15. 06. 2019 20:41

#	Program:	/corina/corina34_cracker 3.40 0067  02.08.2006

@<TRIPOS>MOLECULE
ASD03430707
  45   50    0    0    0
SMALL
NO_CHARGES


@<TRIPOS>ATOM
   1 C1            -0.0162     1.3409     0.0094 C.2     
   2 C2             1.0733    -0.1649    -5.8873 C.ar    
   3 C3             1.1445     0.6038    -4.7377 C.ar    
   4 C4             2.1745     1.5057    -4.5690 C.ar    
   5 C5             3.1460     1.6644    -5.5526 C.ar    
   6 C6             3.0744     0.8876    -6.7050 C.ar    
   7 C7             2.0465    -0.0225    -6.8738 C.ar    
   8 O8             4.0515     2.6223    -5.2025 O.3     
   9 C9             2.5385     2.4451    -3.4507 C.3     
  10 C10            3.9841     2.8424    -3.7805 C.3     
  11 C11            1.0844     3.6268    -2.1053 C.ar    
  12 C12            1.6313     3.6377    -3.3864 C.ar    
  13 C13            2.4341     1.7922    -2.1023 C.2     
  14 N14            1.5732     2.5371    -1.3806 N.am    
  15 O15            3.0115     0.7910    -1.7345 O.2     
  16 C16            1.2924     4.6248    -4.2841 C.ar    
  17 C17            0.4014     5.6184    -3.9183 C.ar    
  18 C18           -0.1474     5.6176    -2.6493 C.ar    
  19 C19            0.1891     4.6307    -1.7458 C.ar    
  20 C20            1.1941     2.2388     0.0027 C.3     
  21 O21            0.1786    -1.1150    -6.2893 O.3     
  22 C22            0.3825    -1.2597    -7.7071 C.3     
  23 O23            1.7615    -0.8853    -7.8934 O.3     
  24 F24            0.1779    -2.5867    -8.1001 F       
  25 F25           -0.4636    -0.3998    -8.4156 F       
  26 C26            0.0021    -0.0041     0.0020 C.2     
  27 C27           -1.3454    -0.4320     0.0126 C.2     
  28 C28           -2.1064     0.6770     0.0258 C.2     
  29 O29           -1.2959     1.7479     0.0297 O.3     
  30 C30           -3.6130     0.7119     0.0396 C.3     
  31 F31           -4.0672     0.7152     1.3628 F       
  32 F32           -4.0586     1.8685    -0.6093 F       
  33 F33           -4.1117    -0.4154    -0.6218 F       
  34 H34            0.3916     0.4967    -3.9708 H       
  35 H35            3.8265     0.9957    -7.4724 H       
  36 H36            4.6914     2.2003    -3.2555 H       
  37 H37            4.1613     3.8912    -3.5423 H       
  38 H38            1.7221     4.6235    -5.2750 H       
  39 H39            0.1355     6.3930    -4.6224 H       
  40 H40           -0.8424     6.3934    -2.3638 H       
  41 H41           -0.2437     4.6367    -0.7563 H       
  42 H42            0.9607     3.1673     0.5238 H       
  43 H43            2.0210     1.7377     0.5060 H       
  44 H44            0.8780    -0.6358    -0.0103 H       
  45 H45           -1.6963    -1.4534     0.0101 H       
@<TRIPOS>BOND
   1    1   26 2
   2    1   20 1
   3    1   29 1
   4    2    3 ar
   5    2    7 ar
   6    2   21 1
   7    3    4 ar
   8    3   34 1
   9    4    5 ar
  10    4    9 1
  11    5    6 ar
  12    5    8 1
  13    6    7 ar
  14    6   35 1
  15    7   23 1
  16    8   10 1
  17    9   10 1
  18    9   12 1
  19    9   13 1
  20   10   36 1
  21   10   37 1
  22   11   12 ar
  23   11   14 1
  24   11   19 ar
  25   12   16 ar
  26   13   14 am
  27   13   15 2
  28   14   20 1
  29   16   17 ar
  30   16   38 1
  31   17   18 ar
  32   17   39 1
  33   18   19 ar
  34   18   40 1
  35   19   41 1
  36   20   42 1
  37   20   43 1
  38   21   22 1
  39   22   23 1
  40   22   24 1
  41   22   25 1
  42   26   27 1
  43   26   44 1
  44   27   28 2
  45   27   45 1
  46   28   29 1
  47   28   30 1
  48   30   31 1
  49   30   32 1
  50   30   33 1

#	End of record

