#	Name: ASD04910027
#	Creating user name:	WinNT
#	Creation time:	15. 06. 2019 20:55

#	Modifying user name:	WinNT
#	Modification time:	15. 06. 2019 20:55

#	Program:	/corina/corina34_cracker 3.40 0067  02.08.2006

@<TRIPOS>MOLECULE
ASD04910027
  65   67    0    0    0
SMALL
NO_CHARGES


@<TRIPOS>ATOM
   1 C1             0.9501     1.4202     0.9503 C.2     
   2 C2             0.8486    -0.0781     0.8245 C.3     
   3 C3             2.2528    -0.6856     0.8175 C.3     
   4 O4             2.0344     1.9480     1.0266 O.2     
   5 O5            -0.1637     2.1689     0.9722 O.3     
   6 C6             3.2727    -2.8934     0.6676 C.2     
   7 C7             3.1731    -4.3633     0.5441 C.ar    
   8 C8             4.3296    -5.1443     0.5154 C.ar    
   9 C9             4.2297    -6.5154     0.4005 C.ar    
  10 C10            2.9866    -7.1166     0.3134 C.ar    
  11 C11            1.8362    -6.3483     0.3413 C.ar    
  12 C12            1.9220    -4.9766     0.4617 C.ar    
  13 O13            4.3635    -2.3625     0.7443 O.2     
  14 N14            2.1541    -2.1421     0.6951 N.am    
  15 C15            2.8850    -8.6149     0.1870 C.3     
  16 C16            2.5581    -9.2209     1.5533 C.3     
  17 C17            2.5778   -10.7474     1.4521 C.3     
  18 C18            2.2508   -11.3534     2.8183 C.3     
  19 N19            1.8237    -8.9539    -0.7642 N.pl3   
  20 C20            1.8598   -10.1737    -1.4461 C.ar    
  21 C21            0.8535   -10.4954    -2.3482 C.ar    
  22 C22            0.8897   -11.6997    -3.0217 C.ar    
  23 C23            1.9318   -12.5896    -2.7976 C.ar    
  24 C24            2.9375   -12.2686    -1.8958 C.ar    
  25 C25            2.9050   -11.0620    -1.2262 C.ar    
  26 N26            1.9682   -13.8137    -3.4824 N.pl3   
  27 N27            0.9518   -14.7774    -3.5030 N.2     
  28 C28            1.3513   -15.7777    -4.2470 C.2     
  29 C29            2.6332   -15.4841    -4.7238 C.2     
  30 C30            2.9881   -14.2692    -4.2440 C.2     
  31 C31            3.4691   -16.3627    -5.6184 C.3     
  32 F32            2.7651   -17.5361    -5.9093 F       
  33 F33            3.7528   -15.6821    -6.8073 F       
  34 F34            4.6655   -16.6855    -4.9689 F       
  35 C35            4.0677   -13.2352    -1.6522 C.3     
  36 C36           -0.2021   -12.0490    -3.9999 C.3     
  37 H37            0.2847    -0.4762     1.6681 H       
  38 H38            0.3387    -0.3309    -0.1051 H       
  39 H39            2.8167    -0.2875    -0.0261 H       
  40 H40            2.7627    -0.4328     1.7471 H       
  41 H41           -0.0482     3.1255     1.0543 H       
  42 H42            5.3006    -4.6761     0.5825 H       
  43 H43            5.1237    -7.1208     0.3781 H       
  44 H44            0.8689    -6.8237     0.2729 H       
  45 H45            1.0233    -4.3783     0.4878 H       
  46 H46            1.2837    -2.5658     0.6339 H       
  47 H47            3.8342    -9.0145    -0.1699 H       
  48 H48            3.3003    -8.8955     2.2822 H       
  49 H49            1.5688    -8.8905     1.8700 H       
  50 H50            1.8355   -11.0728     0.7232 H       
  51 H51            3.5671   -11.0778     1.1354 H       
  52 H52            1.2615   -11.0230     3.1350 H       
  53 H53            2.2649   -12.4409     2.7462 H       
  54 H54            2.9931   -11.0280     3.5472 H       
  55 H55            1.0960    -8.3320    -0.9209 H       
  56 H56            0.0428    -9.8035    -2.5222 H       
  57 H57            3.6898   -10.8103    -0.5283 H       
  58 H58            0.7883   -16.6753    -4.4562 H       
  59 H59            3.9197   -13.7568    -4.4337 H       
  60 H60            4.8416   -13.0865    -2.4054 H       
  61 H61            4.4871   -13.0616    -0.6612 H       
  62 H62            3.6920   -14.2565    -1.7140 H       
  63 H63            0.0508   -11.6529    -4.9834 H       
  64 H64           -0.3034   -13.1327    -4.0596 H       
  65 H65           -1.1435   -11.6141    -3.6642 H       
@<TRIPOS>BOND
   1    1    2 1
   2    1    4 2
   3    1    5 1
   4    2    3 1
   5    2   37 1
   6    2   38 1
   7    3   14 1
   8    3   39 1
   9    3   40 1
  10    5   41 1
  11    6    7 1
  12    6   13 2
  13    6   14 am
  14    7    8 ar
  15    7   12 ar
  16    8    9 ar
  17    8   42 1
  18    9   10 ar
  19    9   43 1
  20   10   11 ar
  21   10   15 1
  22   11   12 ar
  23   11   44 1
  24   12   45 1
  25   14   46 1
  26   15   16 1
  27   15   19 1
  28   15   47 1
  29   16   17 1
  30   16   48 1
  31   16   49 1
  32   17   18 1
  33   17   50 1
  34   17   51 1
  35   18   52 1
  36   18   53 1
  37   18   54 1
  38   19   20 1
  39   19   55 1
  40   20   21 ar
  41   20   25 ar
  42   21   22 ar
  43   21   56 1
  44   22   23 ar
  45   22   36 1
  46   23   24 ar
  47   23   26 1
  48   24   25 ar
  49   24   35 1
  50   25   57 1
  51   26   27 1
  52   26   30 1
  53   27   28 2
  54   28   29 1
  55   28   58 1
  56   29   30 2
  57   29   31 1
  58   30   59 1
  59   31   32 1
  60   31   33 1
  61   31   34 1
  62   35   60 1
  63   35   61 1
  64   35   62 1
  65   36   63 1
  66   36   64 1
  67   36   65 1

#	End of record

