#	Name: ASD01148796
#	Creating user name:	WinNT
#	Creation time:	15. 06. 2019 19:03

#	Modifying user name:	WinNT
#	Modification time:	15. 06. 2019 19:03

#	Program:	/corina/corina34_cracker 3.40 0067  02.08.2006

@<TRIPOS>MOLECULE
ASD01148796
  61   65    0    0    0
SMALL
NO_CHARGES


@<TRIPOS>ATOM
   1 N1             0.0239     1.3898    -0.1532 N.pl3   
   2 C2             0.0052     0.0401    -0.2564 C.2     
   3 C3             1.2729    -0.4443    -0.0203 C.2     
   4 C4             2.1205     0.7302     0.2478 C.2     
   5 C5             1.2886     1.8299     0.1503 C.2     
   6 C6             1.6953    -1.8519    -0.0328 C.2     
   7 O7             2.0904    -2.3588    -1.0647 O.2     
   8 O8             1.6446    -2.5810     1.1000 O.3     
   9 C9            -1.0889     2.2208    -0.3361 C.ar    
  10 C10           -2.1417     2.1829     0.5685 C.ar    
  11 C11           -3.2373     3.0037     0.3857 C.ar    
  12 C12           -3.2864     3.8627    -0.6968 C.ar    
  13 C13           -2.2396     3.9028    -1.5994 C.ar    
  14 C14           -1.1389     3.0882    -1.4192 C.ar    
  15 S15           -4.6861     4.9080    -0.9269 S.o2    
  16 O16           -4.7253     5.2272    -2.3110 O.2     
  17 O17           -5.7660     4.2892    -0.2411 O.2     
  18 N18           -4.3760     6.3254    -0.1287 N.am    
  19 C19           -1.2064    -0.7968    -0.5770 C.3     
  20 N20            5.5144     0.5551     3.5443 N.pl3   
  21 C21            4.2784     0.4945     4.1278 C.2     
  22 C22            3.3245     0.5450     3.1827 C.2     
  23 C23            4.0057     0.6460     1.8928 C.ar    
  24 C24            3.5653     0.7324     0.5582 C.ar    
  25 C25            4.5030     0.8193    -0.4653 C.ar    
  26 C26            5.8565     0.8203    -0.1720 C.ar    
  27 C27            6.2973     0.7360     1.1317 C.ar    
  28 C28            5.3817     0.6484     2.1766 C.ar    
  29 C29            1.6913     3.2372     0.3397 C.ar    
  30 C30            1.0124     4.0439     1.2561 C.ar    
  31 C31            1.3936     5.3580     1.4283 C.ar    
  32 C32            2.4467     5.8784     0.6947 C.ar    
  33 C33            3.1239     5.0840    -0.2154 C.ar    
  34 C34            2.7566     3.7666    -0.3925 C.ar    
  35 Cl35           2.9196     7.5340     0.9166 Cl      
  36 C36            2.0772    -3.9643     1.0135 C.3     
  37 C37            1.9493    -4.6255     2.3874 C.3     
  38 H38           -2.1040     1.5119     1.4140 H       
  39 H39           -4.0566     2.9744     1.0887 H       
  40 H40           -2.2810     4.5745    -2.4441 H       
  41 H41           -0.3196     3.1232    -2.1220 H       
  42 H42           -3.5377     6.4416     0.3454 H       
  43 H43           -5.0325     7.0394    -0.1352 H       
  44 H44           -1.2843    -0.9248    -1.6566 H       
  45 H45           -1.1100    -1.7728    -0.1013 H       
  46 H46           -2.1013    -0.2980    -0.2048 H       
  47 H47            6.3581     0.5391     4.0227 H       
  48 H48            4.0965     0.4175     5.1896 H       
  49 H49            2.2572     0.5164     3.3451 H       
  50 H50            4.1747     0.8859    -1.4920 H       
  51 H51            6.5759     0.8875    -0.9748 H       
  52 H52            7.3564     0.7377     1.3429 H       
  53 H53            0.1905     3.6394     1.8282 H       
  54 H54            0.8695     5.9827     2.1365 H       
  55 H55            3.9443     5.4959    -0.7844 H       
  56 H56            3.2884     3.1468    -1.0993 H       
  57 H57            1.4534    -4.4959     0.2950 H       
  58 H58            3.1170    -4.0002     0.6885 H       
  59 H59            2.2741    -5.6640     2.3224 H       
  60 H60            2.5731    -4.0939     3.1059 H       
  61 H61            0.9095    -4.5896     2.7124 H       
@<TRIPOS>BOND
   1    1    2 1
   2    1    5 1
   3    1    9 1
   4    2    3 2
   5    2   19 1
   6    3    4 1
   7    3    6 1
   8    4    5 2
   9    4   24 1
  10    5   29 1
  11    6    7 2
  12    6    8 1
  13    8   36 1
  14    9   10 ar
  15    9   14 ar
  16   10   11 ar
  17   10   38 1
  18   11   12 ar
  19   11   39 1
  20   12   13 ar
  21   12   15 1
  22   13   14 ar
  23   13   40 1
  24   14   41 1
  25   15   16 2
  26   15   17 2
  27   15   18 am
  28   18   42 1
  29   18   43 1
  30   19   44 1
  31   19   45 1
  32   19   46 1
  33   20   21 1
  34   20   28 1
  35   20   47 1
  36   21   22 2
  37   21   48 1
  38   22   23 1
  39   22   49 1
  40   23   24 ar
  41   23   28 ar
  42   24   25 ar
  43   25   26 ar
  44   25   50 1
  45   26   27 ar
  46   26   51 1
  47   27   28 ar
  48   27   52 1
  49   29   30 ar
  50   29   34 ar
  51   30   31 ar
  52   30   53 1
  53   31   32 ar
  54   31   54 1
  55   32   33 ar
  56   32   35 1
  57   33   34 ar
  58   33   55 1
  59   34   56 1
  60   36   37 1
  61   36   57 1
  62   36   58 1
  63   37   59 1
  64   37   60 1
  65   37   61 1

#	End of record

