#	Name: ASD01881227
#	Creating user name:	WinNT
#	Creation time:	15. 06. 2019 19:42

#	Modifying user name:	WinNT
#	Modification time:	15. 06. 2019 19:42

#	Program:	/corina/corina34_cracker 3.40 0067  02.08.2006

@<TRIPOS>MOLECULE
ASD01881227
  46   48    0    0    0
SMALL
NO_CHARGES


@<TRIPOS>ATOM
   1 N1            -0.0158     1.3132     0.0093 N.ar    
   2 C2             0.0021    -0.0041     0.0020 C.ar    
   3 N3             1.1304    -0.6846    -0.0120 N.ar    
   4 C4             2.3038    -0.0595    -0.0198 C.ar    
   5 C5             2.3282     1.3306    -0.0130 C.ar    
   6 C6             1.1163     2.0109     0.0022 C.ar    
   7 C7             3.6353     2.0806    -0.0210 C.3     
   8 O8             4.0364     2.3244    -1.3707 O.3     
   9 C9             5.2017     2.9949    -1.5556 C.ar    
  10 C10            5.6508     3.2656    -2.8450 C.ar    
  11 C11            6.8291     3.9440    -3.0318 C.ar    
  12 C12            7.5846     4.3668    -1.9327 C.ar    
  13 C13            7.1293     4.0924    -0.6387 C.ar    
  14 C14            5.9420     3.4150    -0.4579 C.ar    
  15 C15            7.5811     4.3887    -4.2614 C.3     
  16 N16            8.7849     5.0753    -3.7791 N.am    
  17 C17            8.7825     5.0601    -2.4352 C.2     
  18 O18            9.6466     5.5498    -1.7338 O.2     
  19 C19           -1.3051    -0.7540     0.0105 C.3     
  20 Cl20           8.0542     4.6090     0.7366 Cl      
  21 C21            9.4602     7.1392    -4.9041 C.3     
  22 C22            9.8190     5.6786    -4.6235 C.3     
  23 O23            1.0887     3.3660     0.0093 O.3     
  24 C24           -0.1974     3.9886     0.0250 C.3     
  25 F25           -0.8934     3.5924     1.1721 F       
  26 F26           -0.0424     5.3790     0.0305 F       
  27 F27           -0.9156     3.6040    -1.1123 F       
  28 O28            3.4596    -0.7672    -0.0338 O.3     
  29 C29            3.3480    -2.1919    -0.0394 C.3     
  30 H30            3.5122     3.0307     0.4988 H       
  31 H31            4.3979     1.4869     0.4830 H       
  32 H32            5.0726     2.9418    -3.6977 H       
  33 H33            5.5901     3.2034     0.5411 H       
  34 H34            7.8590     3.5239    -4.8639 H       
  35 H35            6.9687     5.0735    -4.8480 H       
  36 H36           -1.6300    -0.9293    -1.0151 H       
  37 H37           -1.1725    -1.7095     0.5179 H       
  38 H38           -2.0581    -0.1656     0.5347 H       
  39 H39           10.2296     7.5881    -5.5324 H       
  40 H40            8.4997     7.1853    -5.4172 H       
  41 H41            9.3959     7.6849    -3.9627 H       
  42 H42           10.7796     5.6325    -4.1105 H       
  43 H43            9.8833     5.1330    -5.5649 H       
  44 H44            4.3441    -2.6343    -0.0507 H       
  45 H45            2.8155    -2.5181     0.8539 H       
  46 H46            2.7992    -2.5098    -0.9259 H       
@<TRIPOS>BOND
   1    1    2 ar
   2    1    6 ar
   3    2    3 ar
   4    2   19 1
   5    3    4 ar
   6    4    5 ar
   7    4   28 1
   8    5    6 ar
   9    5    7 1
  10    6   23 1
  11    7    8 1
  12    7   30 1
  13    7   31 1
  14    8    9 1
  15    9   10 ar
  16    9   14 ar
  17   10   11 ar
  18   10   32 1
  19   11   12 ar
  20   11   15 1
  21   12   13 ar
  22   12   17 1
  23   13   14 ar
  24   13   20 1
  25   14   33 1
  26   15   16 1
  27   15   34 1
  28   15   35 1
  29   16   17 am
  30   16   22 1
  31   17   18 2
  32   19   36 1
  33   19   37 1
  34   19   38 1
  35   21   22 1
  36   21   39 1
  37   21   40 1
  38   21   41 1
  39   22   42 1
  40   22   43 1
  41   23   24 1
  42   24   25 1
  43   24   26 1
  44   24   27 1
  45   28   29 1
  46   29   44 1
  47   29   45 1
  48   29   46 1

#	End of record

