#	Name: ASD01420206
#	Creating user name:	WinNT
#	Creation time:	15. 06. 2019 19:20

#	Modifying user name:	WinNT
#	Modification time:	15. 06. 2019 19:20

#	Program:	/corina/corina34_cracker 3.40 0067  02.08.2006

@<TRIPOS>MOLECULE
ASD01420206
  39   40    0    0    0
SMALL
NO_CHARGES


@<TRIPOS>ATOM
   1 C1            -0.0179     1.4708     0.0101 C.2     
   2 C2             0.0021    -0.0041     0.0020 C.ar    
   3 C3             1.2197    -0.6858    -0.0133 C.ar    
   4 C4             1.2322    -2.0761    -0.0209 C.ar    
   5 C5             0.0213    -2.7842    -0.0132 C.ar    
   6 C6            -1.1847    -2.0979     0.0020 C.ar    
   7 C7            -1.1991    -0.7202     0.0154 C.ar    
   8 O8             1.0259     2.0925     0.0035 O.2     
   9 O9            -1.1939     2.1285     0.0193 O.3     
  10 C10            2.5171    -2.8056    -0.0376 C.2     
  11 C11            3.2513    -2.8804     1.0640 C.2     
  12 C12            2.7754    -2.2215     2.3330 C.3     
  13 C13            2.9931    -3.4645    -1.3066 C.3     
  14 O14            0.0293    -4.1405    -0.0210 O.3     
  15 C15           -1.2401    -4.7968    -0.0125 C.3     
  16 C16           -1.0339    -6.2895    -0.0230 C.ar    
  17 C17           -0.9277    -6.9811     1.1692 C.ar    
  18 C18           -0.7385    -8.3504     1.1595 C.ar    
  19 C19           -0.6560    -9.0282    -0.0424 C.ar    
  20 C20           -0.7631    -8.3368    -1.2346 C.ar    
  21 C21           -0.9566    -6.9681    -1.2249 C.ar    
  22 H22            2.1490    -0.1355    -0.0195 H       
  23 H23           -2.1155    -2.6457     0.0079 H       
  24 H24           -2.1408    -0.1918     0.0317 H       
  25 H25           -1.1564     3.0948     0.0244 H       
  26 H26            4.1904    -3.4136     1.0518 H       
  27 H27            1.8162    -2.6483     2.6263 H       
  28 H28            3.5051    -2.3890     3.1251 H       
  29 H29            2.6605    -1.1506     2.1653 H       
  30 H30            2.2633    -3.2970    -2.0987 H       
  31 H31            3.9522    -3.0378    -1.5999 H       
  32 H32            3.1079    -4.5354    -1.1389 H       
  33 H33           -1.7901    -4.5123     0.8845 H       
  34 H34           -1.8074    -4.5021    -0.8953 H       
  35 H35           -0.9922    -6.4515     2.1082 H       
  36 H36           -0.6549    -8.8906     2.0910 H       
  37 H37           -0.5075   -10.0979    -0.0500 H       
  38 H38           -0.6983    -8.8664    -2.1737 H       
  39 H39           -1.0440    -6.4284    -2.1563 H       
@<TRIPOS>BOND
   1    1    2 1
   2    1    8 2
   3    1    9 1
   4    2    3 ar
   5    2    7 ar
   6    3    4 ar
   7    3   22 1
   8    4    5 ar
   9    4   10 1
  10    5    6 ar
  11    5   14 1
  12    6    7 ar
  13    6   23 1
  14    7   24 1
  15    9   25 1
  16   10   11 2
  17   10   13 1
  18   11   12 1
  19   11   26 1
  20   12   27 1
  21   12   28 1
  22   12   29 1
  23   13   30 1
  24   13   31 1
  25   13   32 1
  26   14   15 1
  27   15   16 1
  28   15   33 1
  29   15   34 1
  30   16   17 ar
  31   16   21 ar
  32   17   18 ar
  33   17   35 1
  34   18   19 ar
  35   18   36 1
  36   19   20 ar
  37   19   37 1
  38   20   21 ar
  39   20   38 1
  40   21   39 1

#	End of record

