#	Name: ASD05430659
#	Creating user name:	WinNT
#	Creation time:	15. 06. 2019 21:00

#	Modifying user name:	WinNT
#	Modification time:	15. 06. 2019 21:00

#	Program:	/corina/corina34_cracker 3.40 0067  02.08.2006

@<TRIPOS>MOLECULE
ASD05430659
  21   21    0    0    0
SMALL
NO_CHARGES


@<TRIPOS>ATOM
   1 C1            -0.0167     1.3781     0.0096 C.ar    
   2 C2             0.0021    -0.0041     0.0020 C.ar    
   3 C3            -1.1855    -0.7115     0.0095 C.ar    
   4 C4            -2.4105     1.3455     0.0438 C.ar    
   5 C5            -1.2230     2.0529     0.0305 C.ar    
   6 C6             1.2780     2.1493     0.0014 C.3     
   7 C7            -2.3919    -0.0367     0.0251 C.ar    
   8 C8             1.3352     3.0367    -1.2437 C.3     
   9 C9             1.3591     3.0232     1.2546 C.3     
  10 H10            0.9446    -0.5313    -0.0101 H       
  11 H11           -1.1709    -1.7913     0.0029 H       
  12 H12           -3.3530     1.8727     0.0601 H       
  13 H13           -1.2375     3.1327     0.0451 H       
  14 H14            2.1160     1.4524    -0.0103 H       
  15 H15           -3.3197    -0.5893     0.0306 H       
  16 H16            0.4972     3.7336    -1.2320 H       
  17 H17            2.2717     3.5944    -1.2496 H       
  18 H18            1.2775     2.4141    -2.1365 H       
  19 H19            1.3183     2.3911     2.1417 H       
  20 H20            2.2955     3.5810     1.2487 H       
  21 H21            0.5211     3.7202     1.2664 H       
@<TRIPOS>BOND
   1    1    2 ar
   2    1    6 1
   3    1    5 ar
   4    2    3 ar
   5    2   10 1
   6    3    7 ar
   7    3   11 1
   8    4    5 ar
   9    4    7 ar
  10    4   12 1
  11    5   13 1
  12    6    8 1
  13    6    9 1
  14    6   14 1
  15    7   15 1
  16    8   16 1
  17    8   17 1
  18    8   18 1
  19    9   19 1
  20    9   20 1
  21    9   21 1

#	End of record

