#	Name: ASD01000015
#	Creating user name:	WinNT
#	Creation time:	15. 06. 2019 18:54

#	Modifying user name:	WinNT
#	Modification time:	15. 06. 2019 18:54

#	Program:	/corina/corina34_cracker 3.40 0067  02.08.2006

@<TRIPOS>MOLECULE
ASD01000015
  57   60    0    0    0
SMALL
NO_CHARGES


@<TRIPOS>ATOM
   1 C1            -0.6739     0.6711     0.3732 C.ar    
   2 C2            -0.4450    -0.6836     0.2210 C.ar    
   3 C3             0.8501    -1.1644     0.1708 C.ar    
   4 C4             1.9163    -0.2904     0.2724 C.ar    
   5 C5             1.6873     1.0645     0.4238 C.ar    
   6 C6             0.3922     1.5451     0.4754 C.ar    
   7 C7             1.0997    -2.6414     0.0058 C.3     
   8 C8             1.8981    -2.8774    -1.2756 C.3     
   9 C9             1.8579    -3.1553     1.2060 C.2     
  10 C10            2.8480    -4.0650     1.0825 C.2     
  11 N11            3.2107    -4.5639    -0.1376 N.pl3   
  12 C12            2.3446    -4.3463    -1.3012 C.3     
  13 C13            1.4925    -2.6513     2.4662 C.2     
  14 C14            2.1816    -3.1094     3.7216 C.3     
  15 C15            1.1221    -5.2624    -1.2176 C.3     
  16 C16            2.6842    -4.5426     3.5168 C.3     
  17 C17            3.6021    -4.5616     2.2933 C.3     
  18 O18            0.6016    -1.8281     2.5425 O.2     
  19 C19            3.4633    -4.9970     4.7527 C.3     
  20 C20            1.4955    -5.4772     3.2837 C.3     
  21 C21            1.0318    -2.5888    -2.4745 C.2     
  22 O22           -0.1160    -2.2283    -2.3206 O.2     
  23 N23            1.5324    -2.7313    -3.7177 N.am    
  24 C24            0.7016    -2.5585    -4.8308 C.ar    
  25 C25           -0.3059    -1.6032    -4.8051 C.ar    
  26 C26            0.8871    -3.3381    -5.9649 C.ar    
  27 C27            0.0662    -3.1652    -7.0620 C.ar    
  28 C28           -0.9404    -2.2162    -7.0319 C.ar    
  29 C29           -1.1240    -1.4344    -5.9049 C.ar    
  30 Cl30          -1.9705    -2.0014    -8.4126 Cl      
  31 H31           -1.6857     1.0472     0.4080 H       
  32 H32           -1.2779    -1.3665     0.1416 H       
  33 H33            2.9281    -0.6660     0.2339 H       
  34 H34            2.5203     1.7473     0.5035 H       
  35 H35            0.2134     2.6036     0.5933 H       
  36 H36            0.1445    -3.1616    -0.0650 H       
  37 H37            2.7725    -2.2267    -1.2889 H       
  38 H38            4.0387    -5.0601    -0.2335 H       
  39 H39            2.8983    -4.5491    -2.2179 H       
  40 H40            3.0256    -2.4535     3.9349 H       
  41 H41            1.4783    -3.0846     4.5540 H       
  42 H42            0.5643    -5.0418    -0.3075 H       
  43 H43            0.4831    -5.0957    -2.0848 H       
  44 H44            1.4479    -6.3025    -1.2009 H       
  45 H45            3.9461    -5.5803     2.1139 H       
  46 H46            4.4615    -3.9161     2.4746 H       
  47 H47            2.8114    -4.9639     5.6256 H       
  48 H48            3.8191    -6.0164     4.6034 H       
  49 H49            4.3145    -4.3344     4.9096 H       
  50 H50            0.9490    -5.1557     2.3971 H       
  51 H51            1.8568    -6.4953     3.1384 H       
  52 H52            0.8339    -5.4464     4.1493 H       
  53 H53            2.4685    -2.9536    -3.8410 H       
  54 H54           -0.4499    -0.9931    -3.9256 H       
  55 H55            1.6728    -4.0787    -5.9891 H       
  56 H56            0.2103    -3.7710    -7.9444 H       
  57 H57           -1.9104    -0.6943    -5.8839 H       
@<TRIPOS>BOND
   1    1    2 ar
   2    1    6 ar
   3    1   31 1
   4    2    3 ar
   5    2   32 1
   6    3    4 ar
   7    3    7 1
   8    4    5 ar
   9    4   33 1
  10    5    6 ar
  11    5   34 1
  12    6   35 1
  13    7    8 1
  14    7    9 1
  15    7   36 1
  16    8   21 1
  17    8   12 1
  18    8   37 1
  19    9   10 2
  20    9   13 1
  21   10   11 1
  22   10   17 1
  23   11   12 1
  24   11   38 1
  25   12   15 1
  26   12   39 1
  27   13   14 1
  28   13   18 2
  29   14   16 1
  30   14   40 1
  31   14   41 1
  32   15   42 1
  33   15   43 1
  34   15   44 1
  35   16   17 1
  36   16   19 1
  37   16   20 1
  38   17   45 1
  39   17   46 1
  40   19   47 1
  41   19   48 1
  42   19   49 1
  43   20   50 1
  44   20   51 1
  45   20   52 1
  46   21   22 2
  47   21   23 am
  48   23   24 1
  49   23   53 1
  50   24   25 ar
  51   24   26 ar
  52   25   29 ar
  53   25   54 1
  54   26   27 ar
  55   26   55 1
  56   27   28 ar
  57   27   56 1
  58   28   29 ar
  59   28   30 1
  60   29   57 1

#	End of record

