#	Name: ASD03731457
#	Creating user name:	WinNT
#	Creation time:	15. 06. 2019 20:45

#	Modifying user name:	WinNT
#	Modification time:	15. 06. 2019 20:45

#	Program:	/corina/corina34_cracker 3.40 0067  02.08.2006

@<TRIPOS>MOLECULE
ASD03731457
  59   64    0    0    0
SMALL
NO_CHARGES


@<TRIPOS>ATOM
   1 C1            -0.0184     1.5028     0.0103 C.2     
   2 C2             0.0021    -0.0041     0.0020 C.3     
   3 O3             1.0236     2.1234     0.0037 O.2     
   4 N4            -1.1946     2.1607     0.0195 N.am    
   5 O5             1.3556    -0.4620    -0.0134 O.3     
   6 C6             1.5519    -1.8067    -0.0225 C.ar    
   7 C7             2.8404    -2.3207    -0.0375 C.ar    
   8 C8             3.0373    -3.6880    -0.0468 C.ar    
   9 C9             1.9515    -4.5441    -0.0411 C.ar    
  10 C10            0.6664    -4.0343    -0.0265 C.ar    
  11 C11            0.4642    -2.6678    -0.0110 C.ar    
  12 C12           -1.2145     3.6256     0.0275 C.3     
  13 C13           -2.6637     4.1159     0.0371 C.3     
  14 C14           -2.6845     5.6457     0.0455 C.3     
  15 O15           -8.8979     2.7393     2.1988 O.3     
  16 C16          -10.3150     2.7928     2.4481 C.3     
  17 O17          -10.5201     4.1171     2.9744 O.3     
  18 C18           -9.5165     4.8794     2.4484 C.ar    
  19 C19           -8.5189     4.0315     1.9726 C.ar    
  20 C20           -9.3717     6.2503     2.3343 C.ar    
  21 C21           -8.2322     6.7925     1.7475 C.ar    
  22 C22           -7.2388     5.9357     1.2835 C.ar    
  23 C23           -7.3830     4.5682     1.3902 C.ar    
  24 O24           -7.9033     8.0972     1.5243 O.3     
  25 C25           -6.1403     6.8084     0.7378 C.3     
  26 C26           -6.4846     8.1968     1.2939 C.3     
  27 N27           -4.0722     6.1152     0.0546 N.am    
  28 C28           -4.7795     6.3508     1.1777 C.2     
  29 C29           -6.0970     6.8011    -0.7615 C.ar    
  30 C30           -7.0126     7.1140    -1.7413 C.ar    
  31 C31           -6.6642     7.0046    -3.0758 C.ar    
  32 C32           -5.3947     6.5797    -3.4231 C.ar    
  33 C33           -4.4744     6.2642    -2.4454 C.ar    
  34 C34           -4.8162     6.3718    -1.0995 C.ar    
  35 O35           -4.3925     6.2192     2.3196 O.2     
  36 H36           -0.4983    -0.3791     0.8948 H       
  37 H37           -0.5153    -0.3696    -0.8850 H       
  38 H38           -2.0280     1.6644     0.0207 H       
  39 H39            3.6889    -1.6525    -0.0424 H       
  40 H40            4.0402    -4.0887    -0.0589 H       
  41 H41            2.1076    -5.6127    -0.0483 H       
  42 H42           -0.1801    -4.7050    -0.0228 H       
  43 H43           -0.5398    -2.2701     0.0053 H       
  44 H44           -0.7014     3.9910     0.9171 H       
  45 H45           -0.7098     4.0007    -0.8628 H       
  46 H46           -3.1768     3.7505    -0.8525 H       
  47 H47           -3.1683     3.7408     0.9274 H       
  48 H48           -2.1714     6.0112     0.9350 H       
  49 H49           -2.1798     6.0209    -0.8449 H       
  50 H50          -10.8722     2.6586     1.5209 H       
  51 H51          -10.6034     2.0402     3.1818 H       
  52 H52          -10.1480     6.9043     2.7032 H       
  53 H53           -6.6078     3.9142     1.0188 H       
  54 H54           -6.2650     8.9729     0.5607 H       
  55 H55           -5.9530     8.3828     2.2271 H       
  56 H56           -8.0034     7.4455    -1.4678 H       
  57 H57           -7.3818     7.2508    -3.8445 H       
  58 H58           -5.1228     6.4942    -4.4648 H       
  59 H59           -3.4852     5.9325    -2.7244 H       
@<TRIPOS>BOND
   1    1    2 1
   2    1    3 2
   3    1    4 am
   4    2    5 1
   5    2   36 1
   6    2   37 1
   7    4   12 1
   8    4   38 1
   9    5    6 1
  10    6    7 ar
  11    6   11 ar
  12    7    8 ar
  13    7   39 1
  14    8    9 ar
  15    8   40 1
  16    9   10 ar
  17    9   41 1
  18   10   11 ar
  19   10   42 1
  20   11   43 1
  21   12   13 1
  22   12   44 1
  23   12   45 1
  24   13   14 1
  25   13   46 1
  26   13   47 1
  27   14   27 1
  28   14   48 1
  29   14   49 1
  30   15   16 1
  31   15   19 1
  32   16   17 1
  33   16   50 1
  34   16   51 1
  35   17   18 1
  36   18   19 ar
  37   18   20 ar
  38   19   23 ar
  39   20   21 ar
  40   20   52 1
  41   21   22 ar
  42   21   24 1
  43   22   23 ar
  44   22   25 1
  45   23   53 1
  46   24   26 1
  47   25   26 1
  48   25   28 1
  49   25   29 1
  50   26   54 1
  51   26   55 1
  52   27   28 am
  53   27   34 1
  54   28   35 2
  55   29   30 ar
  56   29   34 ar
  57   30   31 ar
  58   30   56 1
  59   31   32 ar
  60   31   57 1
  61   32   33 ar
  62   32   58 1
  63   33   34 ar
  64   33   59 1

#	End of record

