#	Name: ASD01200154
#	Creating user name:	WinNT
#	Creation time:	15. 06. 2019 19:08

#	Modifying user name:	WinNT
#	Modification time:	15. 06. 2019 19:08

#	Program:	/corina/corina34_cracker 3.40 0067  02.08.2006

@<TRIPOS>MOLECULE
ASD01200154
  55   58    0    0    0
SMALL
NO_CHARGES


@<TRIPOS>ATOM
   1 C1            -0.0194     1.3721    -0.0075 C.ar    
   2 C2             0.0019    -0.0107    -0.0149 C.ar    
   3 C3             1.2120    -0.6891    -0.0244 C.ar    
   4 C4             2.3951     0.0167    -0.0265 C.ar    
   5 C5             2.3827     1.4135    -0.0192 C.ar    
   6 C6             3.8453    -0.3971    -0.0354 C.3     
   7 N7             4.6268     0.8448    -0.0324 N.am    
   8 C8             3.7797     1.8885    -0.0231 C.2     
   9 O9             4.1164     3.0564    -0.0191 O.2     
  10 S10            4.2235    -1.3750     1.4449 S.3     
  11 C11            6.0892     0.9328    -0.0380 C.3     
  12 C12            6.5848     0.9700    -1.4606 C.ar    
  13 C13            3.6371    -3.0329     0.9996 C.3     
  14 C14            3.8847    -3.9783     2.1467 C.2     
  15 O15            4.4055    -3.5736     3.1644 O.2     
  16 N16            3.5274    -5.2735     2.0416 N.am    
  17 C17            3.8528    -6.1710     3.0575 C.ar    
  18 N18            4.5958    -5.7675     4.0758 N.ar    
  19 C19            4.9261    -6.5841     5.0579 C.ar    
  20 C20            4.5047    -7.8990     5.0574 C.ar    
  21 C21            3.7234    -8.3619     4.0072 C.ar    
  22 C22            3.3891    -7.4803     2.9946 C.ar    
  23 C23            6.7396     2.1826    -2.1054 C.ar    
  24 C24            7.1941     2.2220    -3.4109 C.ar    
  25 C25            7.4957     1.0444    -4.0750 C.ar    
  26 C26            7.3402    -0.1769    -3.4255 C.ar    
  27 C27            6.8891    -0.2090    -2.1162 C.ar    
  28 O28            7.9424     1.0813    -5.3590 O.3     
  29 O29            7.6346    -1.3357    -4.0735 O.3     
  30 C30            7.4510    -2.5512    -3.3448 C.3     
  31 C31            8.0772     2.3698    -5.9621 C.3     
  32 F32            1.2303    -2.0400    -0.0311 F       
  33 C33            1.1605     2.0877    -0.0096 C.ar    
  34 H34           -0.9645     1.8947    -0.0046 H       
  35 H35           -0.9257    -0.5638    -0.0128 H       
  36 H36            4.0644    -0.9754    -0.9330 H       
  37 H37            6.4005     1.8405     0.4791 H       
  38 H38            6.5074     0.0638     0.4699 H       
  39 H39            2.5692    -2.9948     0.7842 H       
  40 H40            4.1734    -3.3832     0.1177 H       
  41 H41            3.0438    -5.5813     1.2591 H       
  42 H42            5.5343    -6.2196     5.8725 H       
  43 H43            4.7802    -8.5605     5.8654 H       
  44 H44            3.3810    -9.3859     3.9833 H       
  45 H45            2.7825    -7.8067     2.1628 H       
  46 H46            6.5048     3.1014    -1.5887 H       
  47 H47            7.3136     3.1708    -3.9127 H       
  48 H48            6.7676    -1.1552    -1.6100 H       
  49 H49            6.4071    -2.6406    -3.0444 H       
  50 H50            7.7213    -3.3977    -3.9761 H       
  51 H51            8.0848    -2.5424    -2.4580 H       
  52 H52            7.1080     2.8683    -5.9747 H       
  53 H53            8.7857     2.9672    -5.3883 H       
  54 H54            8.4409     2.2566    -6.9834 H       
  55 H55            1.1383     3.1675    -0.0042 H       
@<TRIPOS>BOND
   1    1    2 ar
   2    1   33 ar
   3    1   34 1
   4    2    3 ar
   5    2   35 1
   6    3    4 ar
   7    3   32 1
   8    4    5 ar
   9    4    6 1
  10    5   33 ar
  11    5    8 1
  12    6    7 1
  13    6   10 1
  14    6   36 1
  15    7    8 am
  16    7   11 1
  17    8    9 2
  18   10   13 1
  19   11   12 1
  20   11   37 1
  21   11   38 1
  22   12   23 ar
  23   12   27 ar
  24   13   14 1
  25   13   39 1
  26   13   40 1
  27   14   15 2
  28   14   16 am
  29   16   17 1
  30   16   41 1
  31   17   18 ar
  32   17   22 ar
  33   18   19 ar
  34   19   20 ar
  35   19   42 1
  36   20   21 ar
  37   20   43 1
  38   21   22 ar
  39   21   44 1
  40   22   45 1
  41   23   24 ar
  42   23   46 1
  43   24   25 ar
  44   24   47 1
  45   25   26 ar
  46   25   28 1
  47   26   27 ar
  48   26   29 1
  49   27   48 1
  50   28   31 1
  51   29   30 1
  52   30   49 1
  53   30   50 1
  54   30   51 1
  55   31   52 1
  56   31   53 1
  57   31   54 1
  58   33   55 1

#	End of record

