#	Name: ASD01150793
#	Creating user name:	WinNT
#	Creation time:	15. 06. 2019 19:05

#	Modifying user name:	WinNT
#	Modification time:	15. 06. 2019 19:05

#	Program:	/corina/corina34_cracker 3.40 0067  02.08.2006

@<TRIPOS>MOLECULE
ASD01150793
  53   55    0    0    0
SMALL
NO_CHARGES


@<TRIPOS>ATOM
   1 N1            -0.0179     1.4659     0.0101 N.3     
   2 C2             0.0021    -0.0041     0.0020 C.3     
   3 C3             0.7497    -0.4921    -1.2417 C.3     
   4 O4             2.0659     0.0673    -1.2506 O.3     
   5 C5             2.0838     1.4973    -1.2437 C.3     
   6 C6             1.3496     2.0055    -0.0001 C.3     
   7 C7            -0.7765     1.9758     1.1601 C.3     
   8 C8             0.6633     5.2561     2.0254 C.ar    
   9 N9             0.4770     3.9478     1.9195 N.ar    
  10 C10           -0.5725     3.4644     1.2763 C.ar    
  11 C11           -1.4826     4.3436     0.7098 C.ar    
  12 C12           -1.2576     5.7051     0.8393 C.ar    
  13 N13           -0.1878     6.1229     1.4954 N.ar    
  14 S14            2.0715     5.8567     2.8976 S.3     
  15 C15            1.8127     7.6396     2.7227 C.3     
  16 C16            2.9468     8.3907     3.4230 C.3     
  17 C17            2.7280     9.8977     3.2753 C.3     
  18 C18            3.8621    10.6489     3.9756 C.3     
  19 O19            3.6577    12.0564     3.8375 O.3     
  20 C20            4.5827    12.8730     4.4072 C.ar    
  21 C21            4.4465    14.2503     4.3118 C.ar    
  22 C22            5.3882    15.0782     4.8916 C.ar    
  23 C23            6.4658    14.5352     5.5666 C.ar    
  24 C24            6.6041    13.1628     5.6627 C.ar    
  25 C25            5.6618    12.3307     5.0899 C.ar    
  26 C26           -2.2201     6.6974     0.2392 C.3     
  27 H27            0.5087    -0.3661     0.8967 H       
  28 H28           -1.0202    -0.3818    -0.0162 H       
  29 H29            0.8167    -1.5799    -1.2226 H       
  30 H30            0.2136    -0.1754    -2.1363 H       
  31 H31            3.1155     1.8483    -1.2262 H       
  32 H32            1.5864     1.8718    -2.1384 H       
  33 H33            1.3110     3.0946    -0.0198 H       
  34 H34            1.8778     1.6756     0.8946 H       
  35 H35           -1.8364     1.7643     1.0189 H       
  36 H36           -0.4270     1.4890     2.0706 H       
  37 H37           -2.3480     3.9755     0.1789 H       
  38 H38            1.8011     7.9030     1.6651 H       
  39 H39            0.8604     7.9146     3.1761 H       
  40 H40            2.9584     8.1272     4.4806 H       
  41 H41            3.8991     8.1156     2.9696 H       
  42 H42            2.7164    10.1612     2.2176 H       
  43 H43            1.7757    10.1728     3.7287 H       
  44 H44            3.8737    10.3854     5.0332 H       
  45 H45            4.8144    10.3738     3.5221 H       
  46 H46            3.6051    14.6749     3.7843 H       
  47 H47            5.2827    16.1504     4.8173 H       
  48 H48            7.2009    15.1841     6.0193 H       
  49 H49            7.4471    12.7411     6.1899 H       
  50 H50            5.7677    11.2588     5.1693 H       
  51 H51           -2.9914     6.9426     0.9693 H       
  52 H52           -1.6816     7.6034    -0.0386 H       
  53 H53           -2.6834     6.2639    -0.6471 H       
@<TRIPOS>BOND
   1    1    2 1
   2    1    6 1
   3    1    7 1
   4    2    3 1
   5    2   27 1
   6    2   28 1
   7    3    4 1
   8    3   29 1
   9    3   30 1
  10    4    5 1
  11    5    6 1
  12    5   31 1
  13    5   32 1
  14    6   33 1
  15    6   34 1
  16    7   10 1
  17    7   35 1
  18    7   36 1
  19    8    9 ar
  20    8   13 ar
  21    8   14 1
  22    9   10 ar
  23   10   11 ar
  24   11   12 ar
  25   11   37 1
  26   12   13 ar
  27   12   26 1
  28   14   15 1
  29   15   16 1
  30   15   38 1
  31   15   39 1
  32   16   17 1
  33   16   40 1
  34   16   41 1
  35   17   18 1
  36   17   42 1
  37   17   43 1
  38   18   19 1
  39   18   44 1
  40   18   45 1
  41   19   20 1
  42   20   21 ar
  43   20   25 ar
  44   21   22 ar
  45   21   46 1
  46   22   23 ar
  47   22   47 1
  48   23   24 ar
  49   23   48 1
  50   24   25 ar
  51   24   49 1
  52   25   50 1
  53   26   51 1
  54   26   52 1
  55   26   53 1

#	End of record

