#	Name: ASD01884717
#	Creating user name:	WinNT
#	Creation time:	15. 06. 2019 19:48

#	Modifying user name:	WinNT
#	Modification time:	15. 06. 2019 19:48

#	Program:	/corina/corina34_cracker 3.40 0067  02.08.2006

@<TRIPOS>MOLECULE
ASD01884717
  42   44    0    0    0
SMALL
NO_CHARGES


@<TRIPOS>ATOM
   1 C1            -0.0170     1.4018     0.0097 C.2     
   2 C2             0.0021    -0.0041     0.0020 C.2     
   3 C3             1.1598     2.0872     0.0022 C.2     
   4 C4             2.3745     1.3681    -0.0133 C.2     
   5 C5             2.3524     0.0035    -0.0204 C.2     
   6 N6             1.1735    -0.6669    -0.0123 N.am    
   7 C7             3.6695     2.0927    -0.0222 C.ar    
   8 H8             1.1637     3.1671     0.0076 H       
   9 C9            -1.3285     2.1440     0.0200 C.3     
  10 O10           -1.0480    -0.6261     0.0087 O.2     
  11 C11            1.1749    -2.1319    -0.0197 C.3     
  12 C12            1.1893    -2.6414     1.3985 C.ar    
  13 C13            4.0193     2.8839    -1.1148 C.ar    
  14 C14            5.2237     3.5562    -1.1203 C.ar    
  15 C15            6.0870     3.4452    -0.0390 C.ar    
  16 C16            5.7414     2.6578     1.0507 C.ar    
  17 C17            4.5358     1.9878     1.0644 C.ar    
  18 C18           -0.0012    -2.8763     2.0606 C.ar    
  19 C19            0.0119    -3.3436     3.3615 C.ar    
  20 C20            1.2156    -3.5764     4.0002 C.ar    
  21 C21            2.4061    -3.3423     3.3377 C.ar    
  22 C22            2.3929    -2.8792     2.0354 C.ar    
  23 O23            7.2732     4.1083    -0.0474 O.3     
  24 C24            8.1133     3.9497     1.0976 C.3     
  25 H25            3.2815    -0.5471    -0.0326 H       
  26 H26           -1.6399     2.3173     1.0501 H       
  27 H27           -1.2089     3.1003    -0.4892 H       
  28 H28           -2.0855     1.5511    -0.4935 H       
  29 H29            0.2804    -2.4936    -0.5267 H       
  30 H30            2.0602    -2.4917    -0.5440 H       
  31 H31            3.3482     2.9703    -1.9565 H       
  32 H32            5.4955     4.1692    -1.9669 H       
  33 H33            6.4151     2.5734     1.8906 H       
  34 H34            4.2672     1.3756     1.9126 H       
  35 H35           -0.9416    -2.6944     1.5616 H       
  36 H36           -0.9182    -3.5265     3.8790 H       
  37 H37            1.2259    -3.9408     5.0168 H       
  38 H38            3.3465    -3.5239     3.8368 H       
  39 H39            3.3230    -2.6963     1.5178 H       
  40 H40            9.0258     4.5303     0.9620 H       
  41 H41            7.5876     4.3011     1.9854 H       
  42 H42            8.3674     2.8967     1.2187 H       
@<TRIPOS>BOND
   1    1    2 1
   2    1    3 2
   3    1    9 1
   4    2   10 2
   5    2    6 am
   6    3    4 1
   7    3    8 1
   8    4    5 2
   9    4    7 1
  10    5    6 1
  11    5   25 1
  12    6   11 1
  13    7   13 ar
  14    7   17 ar
  15    9   26 1
  16    9   27 1
  17    9   28 1
  18   11   12 1
  19   11   29 1
  20   11   30 1
  21   12   18 ar
  22   12   22 ar
  23   13   14 ar
  24   13   31 1
  25   14   15 ar
  26   14   32 1
  27   15   16 ar
  28   15   23 1
  29   16   17 ar
  30   16   33 1
  31   17   34 1
  32   18   19 ar
  33   18   35 1
  34   19   20 ar
  35   19   36 1
  36   20   21 ar
  37   20   37 1
  38   21   22 ar
  39   21   38 1
  40   22   39 1
  41   23   24 1
  42   24   40 1
  43   24   41 1
  44   24   42 1

#	End of record

