#	Name: ASD01915407
#	Creating user name:	WinNT
#	Creation time:	15. 06. 2019 20:05

#	Modifying user name:	WinNT
#	Modification time:	15. 06. 2019 20:05

#	Program:	/corina/corina34_cracker 3.40 0067  02.08.2006

@<TRIPOS>MOLECULE
ASD01915407
  50   53    0    0    0
SMALL
NO_CHARGES


@<TRIPOS>ATOM
   1 O1            -0.8784     0.6761     0.6909 O.2     
   2 C2             0.2346     0.2550     0.4425 C.2     
   3 N3             1.2804     1.1036     0.3913 N.am    
   4 C4             0.4420    -1.1884     0.2026 C.2     
   5 C5             1.0750     2.5531     0.5159 C.3     
   6 C6             2.6482     0.5965     0.2161 C.3     
   7 C7             3.2893     1.3099    -0.9783 C.3     
   8 C8             3.2021     2.8236    -0.7702 C.3     
   9 C9             1.7305     3.2487    -0.6813 C.3     
  10 C10            4.7351     0.9004    -1.0920 C.2     
  11 N11            5.3161     0.2830    -2.1570 N.pl3   
  12 N12            5.6618     1.0776    -0.1891 N.2     
  13 N13            6.7828     0.6101    -0.6098 N.2     
  14 C14            6.6299     0.1085    -1.8153 C.2     
  15 C15            7.6785    -0.5243    -2.6447 C.ar    
  16 C16            7.5191    -0.6115    -4.0282 C.ar    
  17 C17            8.5000    -1.2021    -4.7971 C.ar    
  18 C18            9.6422    -1.7089    -4.1979 C.ar    
  19 C19            9.8052    -1.6252    -2.8242 C.ar    
  20 C20            8.8331    -1.0310    -2.0469 C.ar    
  21 C21            0.0960    -1.7837    -1.1062 C.2     
  22 C22           -0.0861    -3.0931    -1.2051 C.2     
  23 C23            0.0537    -3.9745     0.0070 C.3     
  24 C24            0.9519    -1.9700     1.1710 C.2     
  25 C25            1.1569    -3.4407     0.9193 C.3     
  26 F26           -1.1574    -3.9962     0.7071 F       
  27 F27           10.5999    -2.2868    -4.9554 F       
  28 C28            4.6687    -0.1135    -3.4100 C.3     
  29 H29            0.0071     2.7713     0.5255 H       
  30 H30            1.5310     2.9087     1.4398 H       
  31 H31            3.2299     0.7958     1.1161 H       
  32 H32            2.6186    -0.4767     0.0278 H       
  33 H33            2.7606     1.0372    -1.8917 H       
  34 H34            3.7098     3.0926     0.1561 H       
  35 H35            3.6795     3.3334    -1.6070 H       
  36 H36            1.2121     2.9584    -1.5951 H       
  37 H37            1.6710     4.3299    -0.5565 H       
  38 H38            6.6290    -0.2174    -4.4960 H       
  39 H39            8.3776    -1.2700    -5.8680 H       
  40 H40           10.6968    -2.0223    -2.3620 H       
  41 H41            8.9610    -0.9663    -0.9765 H       
  42 H42           -0.0081    -1.1543    -1.9776 H       
  43 H43           -0.3365    -3.5298    -2.1606 H       
  44 H44            0.3066    -4.9865    -0.3092 H       
  45 H45            1.2108    -1.5442     2.1292 H       
  46 H46            1.1402    -3.9762     1.8685 H       
  47 H47            2.1216    -3.5942     0.4356 H       
  48 H48            4.8160     0.6660    -4.1576 H       
  49 H49            5.1067    -1.0459    -3.7661 H       
  50 H50            3.6017    -0.2555    -3.2385 H       
@<TRIPOS>BOND
   1    1    2 2
   2    2    3 am
   3    2    4 1
   4    3    5 1
   5    3    6 1
   6    4   21 1
   7    4   24 2
   8    5    9 1
   9    5   29 1
  10    5   30 1
  11    6    7 1
  12    6   31 1
  13    6   32 1
  14    7    8 1
  15    7   10 1
  16    7   33 1
  17    8    9 1
  18    8   34 1
  19    8   35 1
  20    9   36 1
  21    9   37 1
  22   10   11 1
  23   10   12 2
  24   11   28 1
  25   11   14 1
  26   12   13 1
  27   13   14 2
  28   14   15 1
  29   15   16 ar
  30   15   20 ar
  31   16   17 ar
  32   16   38 1
  33   17   18 ar
  34   17   39 1
  35   18   19 ar
  36   18   27 1
  37   19   20 ar
  38   19   40 1
  39   20   41 1
  40   21   22 2
  41   21   42 1
  42   22   23 1
  43   22   43 1
  44   23   26 1
  45   23   25 1
  46   23   44 1
  47   24   25 1
  48   24   45 1
  49   25   46 1
  50   25   47 1
  51   28   48 1
  52   28   49 1
  53   28   50 1

#	End of record

