#	Name: ASD01813039
#	Creating user name:	WinNT
#	Creation time:	15. 06. 2019 19:29

#	Modifying user name:	WinNT
#	Modification time:	15. 06. 2019 19:29

#	Program:	/corina/corina34_cracker 3.40 0067  02.08.2006

@<TRIPOS>MOLECULE
ASD01813039
  56   60    0    0    0
SMALL
NO_CHARGES


@<TRIPOS>ATOM
   1 C1             0.0573     1.4300    -0.6126 C.ar    
   2 C2             0.1008     0.0676    -0.8315 C.ar    
   3 C3             1.2829    -0.6334    -0.6455 C.ar    
   4 C4             2.4189     0.0256    -0.2421 C.ar    
   5 C5             2.3932     1.4052    -0.0161 C.ar    
   6 C6             1.1961     2.1091    -0.2050 C.ar    
   7 C7             3.8293    -0.4261     0.0442 C.3     
   8 N8             4.5724     0.7765     0.4379 N.am    
   9 C9             3.7392     1.8306     0.4015 C.2     
  10 C10            5.9887     0.8207     0.8098 C.3     
  11 C11            6.8238     1.0645    -0.4208 C.ar    
  12 O12            1.1515     3.4479     0.0091 O.3     
  13 O13            4.0527     2.9731     0.6750 O.2     
  14 C14            7.1226     2.3583    -0.8067 C.ar    
  15 C15            7.8877     2.5850    -1.9341 C.ar    
  16 C16            8.3569     1.5122    -2.6800 C.ar    
  17 C17            8.0553     0.2143    -2.2901 C.ar    
  18 C18            7.2944    -0.0061    -1.1586 C.ar    
  19 C19           -0.1276     4.0779    -0.0868 C.3     
  20 N20            9.1333     1.7390    -3.8250 N.pl3   
  21 C21           -0.1309     5.3593     0.7514 C.3     
  22 C22           -1.4821     6.0610     0.5963 C.3     
  23 N23           -1.7099     6.3799    -0.8189 N.3     
  24 C24           -1.7579     5.1612    -1.6367 C.3     
  25 C25           -0.4150     4.4326    -1.5483 C.3     
  26 N26            9.5159     2.9895    -4.3273 N.2     
  27 C27            9.6505     0.7892    -4.6368 C.2     
  28 C28           10.3322     1.4171    -5.6229 C.2     
  29 C29           10.2368     2.7955    -5.4022 C.2     
  30 C30           -2.9324     7.1765    -0.9889 C.3     
  31 H31           -0.8659     1.9698    -0.7634 H       
  32 H32           -0.7897    -0.4547    -1.1487 H       
  33 H33            1.3104    -1.6993    -0.8177 H       
  34 H34            3.8326    -1.1517     0.8577 H       
  35 H35            4.2716    -0.8637    -0.8507 H       
  36 H36            6.1516     1.6270     1.5250 H       
  37 H37            6.2757    -0.1290     1.2613 H       
  38 H38            6.7570     3.1925    -0.2262 H       
  39 H39            8.1205     3.5957    -2.2352 H       
  40 H40            8.4186    -0.6222    -2.8686 H       
  41 H41            7.0634    -1.0156    -0.8520 H       
  42 H42           -0.8973     3.3997     0.2816 H       
  43 H43            0.0308     5.1088     1.7998 H       
  44 H44            0.6643     6.0209     0.4079 H       
  45 H45           -2.2755     5.4041     0.9529 H       
  46 H46           -1.4826     6.9812     1.1806 H       
  47 H47           -2.5500     4.5085    -1.2697 H       
  48 H48           -1.9588     5.4278    -2.6743 H       
  49 H49            0.3757     5.0796    -1.9280 H       
  50 H50           -0.4562     3.5200    -2.1429 H       
  51 H51            9.5398    -0.2786    -4.5192 H       
  52 H52           10.8623     0.9386    -6.4330 H       
  53 H53           10.6784     3.5668    -6.0159 H       
  54 H54           -2.8392     8.1084    -0.4312 H       
  55 H55           -3.0772     7.3986    -2.0461 H       
  56 H56           -3.7877     6.6135    -0.6154 H       
@<TRIPOS>BOND
   1    1    2 ar
   2    1    6 ar
   3    1   31 1
   4    2    3 ar
   5    2   32 1
   6    3    4 ar
   7    3   33 1
   8    4    7 1
   9    4    5 ar
  10    5    6 ar
  11    5    9 1
  12    6   12 1
  13    7    8 1
  14    7   34 1
  15    7   35 1
  16    8    9 am
  17    8   10 1
  18    9   13 2
  19   10   11 1
  20   10   36 1
  21   10   37 1
  22   11   14 ar
  23   11   18 ar
  24   12   19 1
  25   14   15 ar
  26   14   38 1
  27   15   16 ar
  28   15   39 1
  29   16   17 ar
  30   16   20 1
  31   17   18 ar
  32   17   40 1
  33   18   41 1
  34   19   21 1
  35   19   25 1
  36   19   42 1
  37   20   27 1
  38   20   26 1
  39   21   22 1
  40   21   43 1
  41   21   44 1
  42   22   23 1
  43   22   45 1
  44   22   46 1
  45   23   24 1
  46   23   30 1
  47   24   25 1
  48   24   47 1
  49   24   48 1
  50   25   49 1
  51   25   50 1
  52   26   29 2
  53   27   28 2
  54   27   51 1
  55   28   29 1
  56   28   52 1
  57   29   53 1
  58   30   54 1
  59   30   55 1
  60   30   56 1

#	End of record

