#	Name: ASD04910041
#	Creating user name:	WinNT
#	Creation time:	15. 06. 2019 20:55

#	Modifying user name:	WinNT
#	Modification time:	15. 06. 2019 20:55

#	Program:	/corina/corina34_cracker 3.40 0067  02.08.2006

@<TRIPOS>MOLECULE
ASD04910041
  64   66    0    0    0
SMALL
NO_CHARGES


@<TRIPOS>ATOM
   1 C1            -2.9665    -0.4828     3.1043 C.2     
   2 C2            -2.4220    -1.8826     2.9809 C.3     
   3 C3            -1.3333    -1.9134     1.9064 C.3     
   4 O4            -2.5286     0.3996     2.4046 O.2     
   5 O5            -3.9417    -0.2174     3.9876 O.3     
   6 C6             0.1713    -3.5419     0.8957 C.2     
   7 C7             0.7055    -4.9151     0.7747 C.ar    
   8 C8             1.7155    -5.1957    -0.1469 C.ar    
   9 C9             2.2099    -6.4791    -0.2544 C.ar    
  10 C10            1.7063    -7.4872     0.5483 C.ar    
  11 C11            0.7050    -7.2159     1.4638 C.ar    
  12 C12            0.2059    -5.9355     1.5855 C.ar    
  13 O13            0.6118    -2.6542     0.1918 O.2     
  14 N14           -0.8040    -3.2742     1.7865 N.am    
  15 C15            2.2504    -8.8871     0.4246 C.3     
  16 C16            2.7754    -9.3522     1.7844 C.3     
  17 C17            4.0525    -8.5831     2.1282 C.3     
  18 C18            3.7294    -7.0940     2.2666 C.3     
  19 N19            1.1844    -9.7877    -0.0214 N.pl3   
  20 C20            2.8286   -11.3589    -0.8448 C.ar    
  21 C21            1.5044   -10.9679    -0.7003 C.ar    
  22 C22            0.4983   -11.7665    -1.2401 C.ar    
  23 C23            0.8618   -12.9254    -1.9032 C.ar    
  24 C24            2.2077   -13.2521    -2.0080 C.ar    
  25 N25            3.1370   -12.4705    -1.4833 N.ar    
  26 C26            1.7623   -15.2723    -3.3453 C.2     
  27 N27            2.4796   -16.2470    -3.8338 N.2     
  28 C28            3.7661   -16.0618    -3.5023 C.2     
  29 C29            3.8555   -14.9292    -2.7798 C.2     
  30 N30            2.5852   -14.4228    -2.6765 N.pl3   
  31 C31            4.9132   -16.9656    -3.8740 C.3     
  32 F32            4.4528   -17.9791    -4.7214 F       
  33 F33            5.8996   -16.2214    -4.5301 F       
  34 F34            5.4522   -17.5354    -2.7156 F       
  35 C35            4.6231    -9.1060     3.4480 C.3     
  36 C36            5.0822    -8.7801     1.0138 C.3     
  37 H37           -1.9988    -2.1933     3.9361 H       
  38 H38           -3.2272    -2.5623     2.7020 H       
  39 H39           -1.7565    -1.6027     0.9512 H       
  40 H40           -0.5281    -1.2337     2.1854 H       
  41 H41           -4.2587     0.6952     4.0306 H       
  42 H42            2.1090    -4.4098    -0.7746 H       
  43 H43            2.9914    -6.6975    -0.9671 H       
  44 H44            0.3162    -8.0073     2.0875 H       
  45 H45           -0.5726    -5.7240     2.3036 H       
  46 H46           -1.1555    -3.9826     2.3482 H       
  47 H47            3.0630    -8.8982    -0.3018 H       
  48 H48            2.0212    -9.1644     2.5486 H       
  49 H49            2.9937   -10.4194     1.7439 H       
  50 H50            2.8714    -6.9682     2.9270 H       
  51 H51            4.5901    -6.5729     2.6859 H       
  52 H52            3.4966    -6.6800     1.2855 H       
  53 H53            0.2567    -9.5656     0.1543 H       
  54 H54            3.6150   -10.7436    -0.4334 H       
  55 H55           -0.5406   -11.4878    -1.1431 H       
  56 H56            0.1082   -13.5683    -2.3335 H       
  57 H57            0.6943   -15.1578    -3.4577 H       
  58 H58            4.7548   -14.5016    -2.3618 H       
  59 H59            4.8533   -10.1668     3.3494 H       
  60 H60            5.5329    -8.5580     3.6930 H       
  61 H61            3.8895    -8.9656     4.2419 H       
  62 H62            4.7297    -8.2951     0.1035 H       
  63 H63            6.0326    -8.3399     1.3153 H       
  64 H64            5.2177    -9.8457     0.8286 H       
@<TRIPOS>BOND
   1    1    2 1
   2    1    4 2
   3    1    5 1
   4    2    3 1
   5    2   37 1
   6    2   38 1
   7    3   14 1
   8    3   39 1
   9    3   40 1
  10    5   41 1
  11    6    7 1
  12    6   13 2
  13    6   14 am
  14    7    8 ar
  15    7   12 ar
  16    8    9 ar
  17    8   42 1
  18    9   10 ar
  19    9   43 1
  20   10   11 ar
  21   10   15 1
  22   11   12 ar
  23   11   44 1
  24   12   45 1
  25   14   46 1
  26   15   16 1
  27   15   19 1
  28   15   47 1
  29   16   17 1
  30   16   48 1
  31   16   49 1
  32   17   18 1
  33   17   35 1
  34   17   36 1
  35   18   50 1
  36   18   51 1
  37   18   52 1
  38   19   21 1
  39   19   53 1
  40   20   21 ar
  41   20   25 ar
  42   20   54 1
  43   21   22 ar
  44   22   23 ar
  45   22   55 1
  46   23   24 ar
  47   23   56 1
  48   24   25 ar
  49   24   30 1
  50   26   27 2
  51   26   30 1
  52   26   57 1
  53   27   28 1
  54   28   29 2
  55   28   31 1
  56   29   30 1
  57   29   58 1
  58   31   32 1
  59   31   33 1
  60   31   34 1
  61   35   59 1
  62   35   60 1
  63   35   61 1
  64   36   62 1
  65   36   63 1
  66   36   64 1

#	End of record

