#	Name: ASD03090582
#	Creating user name:	WinNT
#	Creation time:	15. 06. 2019 20:29

#	Modifying user name:	WinNT
#	Modification time:	15. 06. 2019 20:29

#	Program:	/corina/corina34_cracker 3.40 0067  02.08.2006

@<TRIPOS>MOLECULE
ASD03090582
  37   38    0    0    0
SMALL
NO_CHARGES


@<TRIPOS>ATOM
   1 N1            -0.0200     1.3453    -0.0283 N.am    
   2 C2             0.0006    -0.0023    -0.0202 C.2     
   3 O3             1.0626    -0.5942    -0.0397 O.2     
   4 N4            -1.1558    -0.6938     0.0094 N.am    
   5 C5            -1.1402    -2.0905    -0.1041 C.ar    
   6 C6            -2.0821    -2.8530     0.5739 C.ar    
   7 C7            -2.0661    -4.2291     0.4617 C.ar    
   8 C8            -1.1090    -4.8499    -0.3277 C.ar    
   9 C9            -0.1679    -4.0889    -1.0051 C.ar    
  10 C10           -0.1866    -2.7120    -0.8987 C.ar    
  11 C11           -3.1212    -2.1788     1.4322 C.3     
  12 O12           -1.0932    -6.2052    -0.4370 O.3     
  13 C13           -0.0801    -6.7774    -1.2666 C.3     
  14 S14            2.7320     1.3580    -0.0891 S.3     
  15 C15            1.1727     2.0584    -0.0588 C.2     
  16 N16            1.2646     3.3514    -0.0685 N.2     
  17 C17            2.4810     3.8637    -0.0984 C.2     
  18 C18            3.4630     2.9607    -0.1147 C.2     
  19 C19            2.7394     5.3483    -0.1133 C.3     
  20 C20            1.9855     5.9854    -1.2823 C.3     
  21 H21           -0.8672     1.8175    -0.0167 H       
  22 H22           -1.9990    -0.2247     0.1092 H       
  23 H23           -2.7986    -4.8222     0.9889 H       
  24 H24            0.5771    -4.5729    -1.6192 H       
  25 H25            0.5435    -2.1192    -1.4298 H       
  26 H26           -4.0021    -1.9573     0.8297 H       
  27 H27           -3.3993    -2.8401     2.2529 H       
  28 H28           -2.7138    -1.2514     1.8349 H       
  29 H29           -0.1893    -6.4028    -2.2843 H       
  30 H30            0.9022    -6.5032    -0.8819 H       
  31 H31           -0.1804    -7.8628    -1.2663 H       
  32 H32            4.5213     3.1748    -0.1388 H       
  33 H33            2.3948     5.7865     0.8233 H       
  34 H34            3.8081     5.5299    -0.2279 H       
  35 H35            2.3302     5.5472    -2.2190 H       
  36 H36            0.9169     5.8037    -1.1677 H       
  37 H37            2.1724     7.0592    -1.2932 H       
@<TRIPOS>BOND
   1    1    2 am
   2    1   15 1
   3    1   21 1
   4    2    3 2
   5    2    4 am
   6    4    5 1
   7    4   22 1
   8    5    6 ar
   9    5   10 ar
  10    6    7 ar
  11    6   11 1
  12    7    8 ar
  13    7   23 1
  14    8    9 ar
  15    8   12 1
  16    9   10 ar
  17    9   24 1
  18   10   25 1
  19   11   26 1
  20   11   27 1
  21   11   28 1
  22   12   13 1
  23   13   29 1
  24   13   30 1
  25   13   31 1
  26   14   15 1
  27   14   18 1
  28   15   16 2
  29   16   17 1
  30   17   18 2
  31   17   19 1
  32   18   32 1
  33   19   20 1
  34   19   33 1
  35   19   34 1
  36   20   35 1
  37   20   36 1
  38   20   37 1

#	End of record

