#	Name: ASD03430350
#	Creating user name:	WinNT
#	Creation time:	15. 06. 2019 20:40

#	Modifying user name:	WinNT
#	Modification time:	15. 06. 2019 20:40

#	Program:	/corina/corina34_cracker 3.40 0067  02.08.2006

@<TRIPOS>MOLECULE
ASD03430350
  58   64    0    0    0
SMALL
NO_CHARGES


@<TRIPOS>ATOM
   1 C1            -0.0167     1.3821     0.0096 C.ar    
   2 C2             0.0021    -0.0041     0.0020 C.ar    
   3 C3             1.2028    -0.6818    -0.0162 C.ar    
   4 C4             2.4087     0.0129    -0.0162 C.ar    
   5 C5             2.3861     1.4039    -0.0119 C.ar    
   6 C6             1.1815     2.0867     0.0020 C.ar    
   7 O7             3.4713    -0.8419    -0.0074 O.3     
   8 C8             1.5511    -2.1458    -0.0509 C.3     
   9 C9             3.0363    -2.1458    -0.4380 C.3     
  10 C10            0.4268    -3.8598     1.0070 C.ar    
  11 C11            1.3158    -2.8198     1.2682 C.ar    
  12 C12            0.7167    -2.9064    -1.0410 C.2     
  13 N13            0.0966    -3.8836    -0.3502 N.am    
  14 O14            0.6192    -2.6843    -2.2294 O.2     
  15 C15            1.7821    -2.6009     2.5448 C.ar    
  16 C16            1.3690    -3.4172     3.5832 C.ar    
  17 C17            0.4871    -4.4527     3.3353 C.ar    
  18 C18            0.0170    -4.6765     2.0576 C.ar    
  19 C19           -0.8166    -4.8579    -0.9526 C.3     
  20 O20           -1.2113     2.0356     0.0189 O.3     
  21 C21           -1.1865     3.4165     0.3963 C.3     
  22 C22           -0.0349     4.0988    -0.3543 C.3     
  23 O23            1.1866     3.4483     0.0115 O.3     
  24 C24           -2.2457    -4.3132    -0.9075 C.3     
  25 C25           -3.1994    -5.3307    -1.5367 C.3     
  26 N26           -4.5678    -4.8091    -1.4935 N.am    
  27 C27           -5.1295    -4.0647    -2.4630 C.2     
  28 C28           -5.4298    -5.0164    -0.4818 C.2     
  29 C29           -6.7026    -4.3358    -0.8006 C.ar    
  30 C30           -6.5118    -3.7311    -2.0594 C.ar    
  31 O31           -5.2007    -5.6557     0.5250 O.2     
  32 O32           -4.5909    -3.7234    -3.4966 O.2     
  33 C33           -7.9193    -4.2049    -0.1506 C.ar    
  34 C34           -8.9396    -3.4765    -0.7421 C.ar    
  35 C35           -8.7512    -2.8804    -1.9750 C.ar    
  36 C36           -7.5413    -3.0072    -2.6393 C.ar    
  37 H37           -0.9268    -0.5550     0.0107 H       
  38 H38            3.3148     1.9551    -0.0190 H       
  39 H39            3.1554    -2.2571    -1.5158 H       
  40 H40            3.5752    -2.9292     0.0949 H       
  41 H41            2.4713    -1.7916     2.7361 H       
  42 H42            1.7349    -3.2459     4.5848 H       
  43 H43            0.1649    -5.0898     4.1457 H       
  44 H44           -0.6714    -5.4876     1.8718 H       
  45 H45           -0.5276    -5.0346    -1.9886 H       
  46 H46           -0.7671    -5.7943    -0.3969 H       
  47 H47           -2.1315     3.8882     0.1269 H       
  48 H48           -1.0261     3.5010     1.4711 H       
  49 H49           -0.1916     4.0078    -1.4291 H       
  50 H50            0.0118     5.1519    -0.0769 H       
  51 H51           -2.5347    -4.1366     0.1285 H       
  52 H52           -2.2952    -3.3768    -1.4632 H       
  53 H53           -2.9104    -5.5073    -2.5727 H       
  54 H54           -3.1499    -6.2671    -0.9810 H       
  55 H55           -8.0722    -4.6687     0.8127 H       
  56 H56           -9.8883    -3.3742    -0.2363 H       
  57 H57           -9.5538    -2.3154    -2.4256 H       
  58 H58           -7.3997    -2.5390    -3.6022 H       
@<TRIPOS>BOND
   1    1    2 ar
   2    1    6 ar
   3    1   20 1
   4    2    3 ar
   5    2   37 1
   6    3    4 ar
   7    3    8 1
   8    4    5 ar
   9    4    7 1
  10    5    6 ar
  11    5   38 1
  12    6   23 1
  13    7    9 1
  14    8    9 1
  15    8   11 1
  16    8   12 1
  17    9   39 1
  18    9   40 1
  19   10   11 ar
  20   10   13 1
  21   10   18 ar
  22   11   15 ar
  23   12   13 am
  24   12   14 2
  25   13   19 1
  26   15   16 ar
  27   15   41 1
  28   16   17 ar
  29   16   42 1
  30   17   18 ar
  31   17   43 1
  32   18   44 1
  33   19   24 1
  34   19   45 1
  35   19   46 1
  36   20   21 1
  37   21   22 1
  38   21   47 1
  39   21   48 1
  40   22   23 1
  41   22   49 1
  42   22   50 1
  43   24   25 1
  44   24   51 1
  45   24   52 1
  46   25   26 1
  47   25   53 1
  48   25   54 1
  49   26   27 am
  50   26   28 am
  51   27   32 2
  52   27   30 1
  53   28   29 1
  54   28   31 2
  55   29   30 ar
  56   29   33 ar
  57   30   36 ar
  58   33   34 ar
  59   33   55 1
  60   34   35 ar
  61   34   56 1
  62   35   36 ar
  63   35   57 1
  64   36   58 1

#	End of record

