#	Name: ASD03430053
#	Creating user name:	WinNT
#	Creation time:	15. 06. 2019 20:40

#	Modifying user name:	WinNT
#	Modification time:	15. 06. 2019 20:40

#	Program:	/corina/corina34_cracker 3.40 0067  02.08.2006

@<TRIPOS>MOLECULE
ASD03430053
  52   58    0    0    0
SMALL
NO_CHARGES


@<TRIPOS>ATOM
   1 C1             1.8596     1.2929    -1.0453 C.ar    
   2 C2             1.2934     0.0559    -0.7782 C.ar    
   3 C3             2.0881    -1.0016    -0.3883 C.ar    
   4 C4             3.4632    -0.8405    -0.2481 C.ar    
   5 C5             4.0287     0.4009    -0.5215 C.ar    
   6 C6             3.2332     1.4631    -0.9169 C.ar    
   7 O7             4.0557    -1.9950     0.1715 O.3     
   8 C8             1.7883    -2.4384    -0.0547 C.3     
   9 C9             3.1715    -3.1031    -0.0836 C.3     
  10 C10           -0.0782    -3.2448     1.0338 C.ar    
  11 C11            1.1232    -2.5870     1.2813 C.ar    
  12 C12            0.8463    -3.0680    -1.0404 C.2     
  13 N13           -0.2104    -3.5122    -0.3310 N.am    
  14 O14            1.0048    -3.1584    -2.2394 O.2     
  15 C15            1.4706    -2.2187     2.5670 C.ar    
  16 C16            0.6171    -2.5056     3.6249 C.ar    
  17 C17           -0.5766    -3.1588     3.3857 C.ar    
  18 C18           -0.9256    -3.5277     2.1025 C.ar    
  19 C19           -1.3629    -4.1964    -0.9224 C.3     
  20 O20            1.0612     2.3244    -1.4358 O.3     
  21 C21            1.6176     3.6404    -1.3434 C.3     
  22 C22            3.0350     3.6046    -1.9310 C.3     
  23 O23            3.8105     2.6692    -1.1743 O.3     
  24 O24            2.6461    -1.5770     2.7964 O.3     
  25 C25            2.9978    -1.3309     4.0864 C.ar    
  26 C26            3.7234    -2.2741     4.7993 C.ar    
  27 C27            2.6360    -0.1345     4.6874 C.ar    
  28 C28            2.9948     0.1164     6.0015 C.ar    
  29 C29            3.7187    -0.8343     6.7168 C.ar    
  30 C30            4.0824    -2.0258     6.1106 C.ar    
  31 O31            2.7680     1.1919     6.8110 O.3     
  32 C32            3.0042     0.7215     8.1511 C.3     
  33 O33            3.9455    -0.3538     7.9752 O.3     
  34 H34            0.2264    -0.0800    -0.8754 H       
  35 H35            5.0956     0.5372    -0.4241 H       
  36 H36            3.3707    -3.5399    -1.0622 H       
  37 H37            3.2562    -3.8546     0.7014 H       
  38 H38            0.8860    -2.2193     4.6309 H       
  39 H39           -1.2403    -3.3824     4.2079 H       
  40 H40           -1.8610    -4.0378     1.9259 H       
  41 H41           -2.1183    -3.4615    -1.2008 H       
  42 H42           -1.0445    -4.7441    -1.8094 H       
  43 H43           -1.7836    -4.8928    -0.1970 H       
  44 H44            1.0026     4.3401    -1.9092 H       
  45 H45            1.6603     3.9489    -0.2989 H       
  46 H46            2.9932     3.2880    -2.9731 H       
  47 H47            3.4856     4.5949    -1.8648 H       
  48 H48            4.0078    -3.2039     4.3291 H       
  49 H49            2.0749     0.6015     4.1307 H       
  50 H50            4.6437    -2.7634     6.6649 H       
  51 H51            3.4365     1.5124     8.7641 H       
  52 H52            2.0801     0.3526     8.5960 H       
@<TRIPOS>BOND
   1    1    2 ar
   2    1    6 ar
   3    1   20 1
   4    2    3 ar
   5    2   34 1
   6    3    4 ar
   7    3    8 1
   8    4    5 ar
   9    4    7 1
  10    5    6 ar
  11    5   35 1
  12    6   23 1
  13    7    9 1
  14    8    9 1
  15    8   11 1
  16    8   12 1
  17    9   36 1
  18    9   37 1
  19   10   11 ar
  20   10   13 1
  21   10   18 ar
  22   11   15 ar
  23   12   13 am
  24   12   14 2
  25   13   19 1
  26   15   16 ar
  27   15   24 1
  28   16   17 ar
  29   16   38 1
  30   17   18 ar
  31   17   39 1
  32   18   40 1
  33   19   41 1
  34   19   42 1
  35   19   43 1
  36   20   21 1
  37   21   22 1
  38   21   44 1
  39   21   45 1
  40   22   23 1
  41   22   46 1
  42   22   47 1
  43   24   25 1
  44   25   27 ar
  45   25   26 ar
  46   26   30 ar
  47   26   48 1
  48   27   28 ar
  49   27   49 1
  50   28   29 ar
  51   28   31 1
  52   29   30 ar
  53   29   33 1
  54   30   50 1
  55   31   32 1
  56   32   33 1
  57   32   51 1
  58   32   52 1

#	End of record

