#	Name: ASD01870373
#	Creating user name:	WinNT
#	Creation time:	15. 06. 2019 19:39

#	Modifying user name:	WinNT
#	Modification time:	15. 06. 2019 19:39

#	Program:	/corina/corina34_cracker 3.40 0067  02.08.2006

@<TRIPOS>MOLECULE
ASD01870373
  51   54    0    0    0
SMALL
NO_CHARGES


@<TRIPOS>ATOM
   1 N1            -0.0179     1.4666     0.0101 N.am    
   2 C2             0.0021    -0.0041     0.0020 C.3     
   3 C3             1.1293     2.1740     0.0030 C.2     
   4 C4             1.0857     3.6803     0.0115 C.3     
   5 O5             2.1967     1.5983    -0.0103 O.2     
   6 C6             2.4763     4.3407     0.0017 C.3     
   7 N7             1.9076     5.2908    -0.9739 N.am    
   8 C8             0.8907     4.3026    -1.3830 C.3     
   9 S9             2.2664     6.8425    -1.4275 S.o2    
  10 C10            3.4250     6.7442    -2.7514 C.2     
  11 O11            1.0740     7.3858    -1.9773 O.2     
  12 O12            2.9563     7.4310    -0.3334 O.2     
  13 C13           -0.8911    -0.5093     1.1401 C.3     
  14 N14           -2.2246     0.0945     1.0166 N.3     
  15 C15           -2.1639     1.5549     1.1634 C.3     
  16 C16           -1.3229     2.1448     0.0200 C.3     
  17 C17            4.7770     6.7110    -2.6758 C.2     
  18 C18           -3.1111    -0.4624     1.9335 C.ar    
  19 C19           -4.4382    -0.0378     1.9944 C.ar    
  20 C20           -2.6971    -1.4639     2.8116 C.ar    
  21 C21           -3.6064    -1.9896     3.7049 C.ar    
  22 N22           -4.8531    -1.5568     3.7352 N.ar    
  23 C23           -5.2847    -0.6150     2.9173 C.ar    
  24 C24            3.1585     6.6755    -4.1382 C.2     
  25 N25            4.3153     6.6159    -4.7321 N.2     
  26 O26            5.2258     6.6345    -3.9366 O.3     
  27 C27            1.8037     6.6716    -4.7980 C.3     
  28 C28            5.6118     6.7525    -1.4219 C.3     
  29 H29           -0.3779    -0.3702    -0.9518 H       
  30 H30            1.0222    -0.3573     0.1528 H       
  31 H31            0.4145     4.0817     0.7708 H       
  32 H32            2.7518     4.7987     0.9517 H       
  33 H33            3.2612     3.7060    -0.4094 H       
  34 H34            1.2098     3.6567    -2.2009 H       
  35 H35           -0.0998     4.7302    -1.5387 H       
  36 H36           -0.9763    -1.5943     1.0813 H       
  37 H37           -0.4526    -0.2298     2.0981 H       
  38 H38           -3.1722     1.9669     1.1215 H       
  39 H39           -1.7077     1.8056     2.1210 H       
  40 H40           -1.1778     3.2123     0.1853 H       
  41 H41           -1.8328     1.9844    -0.9299 H       
  42 H42           -4.7978     0.7326     1.3283 H       
  43 H43           -1.6786    -1.8228     2.7918 H       
  44 H44           -3.2948    -2.7657     4.3883 H       
  45 H45           -6.3128    -0.2892     2.9747 H       
  46 H46            1.5010     7.6965    -5.0125 H       
  47 H47            1.8541     6.1054    -5.7281 H       
  48 H48            1.0759     6.2100    -4.1307 H       
  49 H49            5.7850     5.7365    -1.0670 H       
  50 H50            6.5677     7.2299    -1.6374 H       
  51 H51            5.0866     7.3209    -0.6544 H       
@<TRIPOS>BOND
   1    1    2 1
   2    1    3 am
   3    1   16 1
   4    2   13 1
   5    2   29 1
   6    2   30 1
   7    3    4 1
   8    3    5 2
   9    4    6 1
  10    4    8 1
  11    4   31 1
  12    6    7 1
  13    6   32 1
  14    6   33 1
  15    7    8 1
  16    7    9 am
  17    8   34 1
  18    8   35 1
  19    9   10 1
  20    9   11 2
  21    9   12 2
  22   10   24 1
  23   10   17 2
  24   13   14 1
  25   13   36 1
  26   13   37 1
  27   14   15 1
  28   14   18 1
  29   15   16 1
  30   15   38 1
  31   15   39 1
  32   16   40 1
  33   16   41 1
  34   17   28 1
  35   17   26 1
  36   18   19 ar
  37   18   20 ar
  38   19   23 ar
  39   19   42 1
  40   20   21 ar
  41   20   43 1
  42   21   22 ar
  43   21   44 1
  44   22   23 ar
  45   23   45 1
  46   24   25 2
  47   24   27 1
  48   25   26 1
  49   27   46 1
  50   27   47 1
  51   27   48 1
  52   28   49 1
  53   28   50 1
  54   28   51 1

#	End of record

