#	Name: ASD08150690
#	Creating user name:	WinNT
#	Creation time:	15. 06. 2019 21:16

#	Modifying user name:	WinNT
#	Modification time:	15. 06. 2019 21:16

#	Program:	/corina/corina34_cracker 3.40 0067  02.08.2006

@<TRIPOS>MOLECULE
ASD08150690
  65   67    0    0    0
SMALL
NO_CHARGES


@<TRIPOS>ATOM
   1 C1            -0.0202     1.0248    -0.6990 C.ar    
   2 C2            -0.0674    -0.1429     0.0441 C.ar    
   3 C3            -1.2486    -0.5119     0.6859 C.ar    
   4 C4            -2.3756     0.2887     0.5811 C.ar    
   5 C5            -2.3324     1.4528    -0.1589 C.ar    
   6 C6            -1.1526     1.8304    -0.7979 C.ar    
   7 N7             1.0708    -0.9530     0.1503 N.am    
   8 C8             0.9577    -2.2916     0.0423 C.2     
   9 N9             2.0409    -3.0753     0.2123 N.am    
  10 S10           -0.5620    -2.9966    -0.3109 S.2     
  11 C11            1.9278    -4.4140     0.1043 C.2     
  12 C12            3.1155    -5.2733     0.2908 C.ar    
  13 O13            0.8491    -4.9144    -0.1463 O.2     
  14 C14            3.0018    -6.6603     0.1796 C.ar    
  15 C15            4.1146    -7.4566     0.3544 C.ar    
  16 C16            5.3414    -6.8835     0.6392 C.ar    
  17 C17            5.4610    -5.5096     0.7512 C.ar    
  18 C18            4.3574    -4.7013     0.5731 C.ar    
  19 C19            3.9938    -8.9540     0.2352 C.3     
  20 C20            6.8010    -4.8944     1.0627 C.3     
  21 C21            1.2552     1.4265    -1.3942 C.3     
  22 C22           -3.5600     2.3197    -0.2710 C.3     
  23 O23           -1.2955    -1.6583     1.4151 O.3     
  24 C24            4.2384    -9.3715    -1.2162 C.3     
  25 C25            7.5411    -4.5962    -0.2428 C.3     
  26 C26           -1.1066     3.0820    -1.5934 C.ar    
  27 C27           -1.2298     4.3175    -0.9608 C.ar    
  28 C28           -1.1864     5.4786    -1.7058 C.ar    
  29 C29           -1.0208     5.4173    -3.0777 C.ar    
  30 C30           -0.8984     4.1936    -3.7108 C.ar    
  31 C31           -0.9342     3.0264    -2.9751 C.ar    
  32 C32            2.0819     2.3197    -0.4670 C.3     
  33 F33            2.2869     1.6638     0.7516 F       
  34 F34            3.3176     2.5934    -1.0629 F       
  35 F35            1.3970     3.5186    -0.2418 F       
  36 C36           -4.3193     1.9653    -1.5511 C.3     
  37 F37           -4.7007     0.6199    -1.5099 F       
  38 F38           -5.4590     2.7700    -1.6552 F       
  39 F39           -3.4927     2.1819    -2.6588 F       
  40 H40           -3.2895     0.0005     1.0794 H       
  41 H41            1.9402    -0.5503     0.3015 H       
  42 H42            2.9019    -2.6759     0.4124 H       
  43 H43            2.0448    -7.1089    -0.0423 H       
  44 H44            6.2095    -7.5115     0.7751 H       
  45 H45            4.4520    -3.6290     0.6608 H       
  46 H46            4.7325    -9.4305     0.8798 H       
  47 H47            2.9936    -9.2631     0.5386 H       
  48 H48            6.6552    -3.9677     1.6176 H       
  49 H49            7.3888    -5.5888     1.6631 H       
  50 H50            1.8286     0.5342    -1.6454 H       
  51 H51            1.0153     1.9729    -2.3063 H       
  52 H52           -4.2040     2.1509     0.5920 H       
  53 H53           -3.2629     3.3679    -0.3032 H       
  54 H54           -0.9854    -1.5584     2.3255 H       
  55 H55            4.1510   -10.4546    -1.3024 H       
  56 H56            3.4997    -8.8950    -1.8608 H       
  57 H57            5.2386    -9.0624    -1.5196 H       
  58 H58            7.6869    -5.5230    -0.7977 H       
  59 H59            6.9533    -3.9019    -0.8432 H       
  60 H60            8.5103    -4.1513    -0.0175 H       
  61 H61           -1.3595     4.3665     0.1102 H       
  62 H62           -1.2821     6.4367    -1.2167 H       
  63 H63           -0.9873     6.3284    -3.6568 H       
  64 H64           -0.7700     4.1515    -4.7823 H       
  65 H65           -0.8337     2.0717    -3.4698 H       
@<TRIPOS>BOND
   1    1    2 ar
   2    1   21 1
   3    1    6 ar
   4    2    3 ar
   5    2    7 1
   6    3    4 ar
   7    3   23 1
   8    4    5 ar
   9    4   40 1
  10    5    6 ar
  11    5   22 1
  12    6   26 1
  13    7    8 am
  14    7   41 1
  15    8    9 am
  16    8   10 2
  17    9   11 am
  18    9   42 1
  19   11   12 1
  20   11   13 2
  21   12   14 ar
  22   12   18 ar
  23   14   15 ar
  24   14   43 1
  25   15   16 ar
  26   15   19 1
  27   16   17 ar
  28   16   44 1
  29   17   18 ar
  30   17   20 1
  31   18   45 1
  32   19   24 1
  33   19   46 1
  34   19   47 1
  35   20   25 1
  36   20   48 1
  37   20   49 1
  38   21   32 1
  39   21   50 1
  40   21   51 1
  41   22   36 1
  42   22   52 1
  43   22   53 1
  44   23   54 1
  45   24   55 1
  46   24   56 1
  47   24   57 1
  48   25   58 1
  49   25   59 1
  50   25   60 1
  51   26   27 ar
  52   26   31 ar
  53   27   28 ar
  54   27   61 1
  55   28   29 ar
  56   28   62 1
  57   29   30 ar
  58   29   63 1
  59   30   31 ar
  60   30   64 1
  61   31   65 1
  62   32   33 1
  63   32   34 1
  64   32   35 1
  65   36   37 1
  66   36   38 1
  67   36   39 1

#	End of record

