#	Name: ASD09890013
#	Creating user name:	WinNT
#	Creation time:	15. 06. 2019 21:24

#	Modifying user name:	WinNT
#	Modification time:	15. 06. 2019 21:24

#	Program:	/corina/corina34_cracker 3.40 0067  02.08.2006

@<TRIPOS>MOLECULE
ASD09890013
  50   54    0    0    0
SMALL
NO_CHARGES


@<TRIPOS>ATOM
   1 C1            -0.0170     1.4018     0.0097 C.ar    
   2 C2             0.0021    -0.0041     0.0020 C.ar    
   3 C3             1.2117    -0.6636    -0.0130 C.ar    
   4 C4             2.4091     0.0445    -0.0206 C.ar    
   5 C5             2.4178     1.4084    -0.0134 C.ar    
   6 C6             1.2077     2.1109     0.0019 C.ar    
   7 C7             1.1626     3.5277     0.0093 C.ar    
   8 N8            -0.0230     4.1183     0.0233 N.ar    
   9 C9            -1.1494     3.4122     0.0304 C.ar    
  10 N10           -1.1652     2.0947     0.0189 N.ar    
  11 N11           -2.3630     4.0933     0.0452 N.pl3   
  12 C12           -3.9221     5.6906     0.0677 C.ar    
  13 N13           -4.5223     4.4705     0.0712 N.2     
  14 C14           -3.6116     3.5303     0.0601 C.2     
  15 C15           -4.4104     6.9993     0.0797 C.ar    
  16 C16           -2.5352     5.4706     0.0536 C.ar    
  17 C17           -1.6631     6.5479     0.0512 C.ar    
  18 C18           -2.1611     7.8349     0.0627 C.ar    
  19 C19           -3.5298     8.0580     0.0771 C.ar    
  20 O20           -1.1617    -0.7058     0.0098 O.3     
  21 C21           -1.0599    -2.1312     0.0011 C.3     
  22 N22            2.3234     4.2721     0.0026 N.pl3   
  23 C23            2.2551     5.7355     0.0104 C.3     
  24 C24            3.6509     6.3036     0.0007 C.ar    
  25 C25            4.2803     6.5700    -1.2008 C.ar    
  26 C26            5.5607     7.0911    -1.2097 C.ar    
  27 C27            6.2115     7.3460    -0.0171 C.ar    
  28 C28            5.5817     7.0804     1.1845 C.ar    
  29 C29            4.2997     6.5634     1.1934 C.ar    
  30 N30           -3.8704     2.1763     0.0621 N.pl3   
  31 H31            1.2304    -1.7435    -0.0186 H       
  32 H32            3.3455    -0.4936    -0.0320 H       
  33 H33            3.3554     1.9444    -0.0190 H       
  34 H34           -5.4750     7.1802     0.0952 H       
  35 H35           -0.5962     6.3805     0.0407 H       
  36 H36           -1.4807     8.6735     0.0608 H       
  37 H37           -3.9078     9.0696     0.0860 H       
  38 H38           -0.5303    -2.4522    -0.8959 H       
  39 H39           -0.5127    -2.4617     0.8840 H       
  40 H40           -2.0590    -2.5669     0.0086 H       
  41 H41            3.1851     3.8268    -0.0074 H       
  42 H42            1.7169     6.0789    -0.8730 H       
  43 H43            1.7329     6.0701     0.9068 H       
  44 H44            3.7719     6.3708    -2.1326 H       
  45 H45            6.0527     7.2986    -2.1485 H       
  46 H46            7.2121     7.7524    -0.0241 H       
  47 H47            6.0903     7.2793     2.1162 H       
  48 H48            3.8063     6.3594     2.1322 H       
  49 H49           -3.1364     1.5422     0.0526 H       
  50 H50           -4.7865     1.8576     0.0732 H       
@<TRIPOS>BOND
   1    1    2 ar
   2    1    6 ar
   3    1   10 ar
   4    2    3 ar
   5    2   20 1
   6    3    4 ar
   7    3   31 1
   8    4    5 ar
   9    4   32 1
  10    5    6 ar
  11    5   33 1
  12    6    7 ar
  13    7    8 ar
  14    7   22 1
  15    8    9 ar
  16    9   10 ar
  17    9   11 1
  18   11   16 1
  19   11   14 1
  20   12   13 1
  21   12   16 ar
  22   12   15 ar
  23   13   14 2
  24   14   30 1
  25   15   19 ar
  26   15   34 1
  27   16   17 ar
  28   17   18 ar
  29   17   35 1
  30   18   19 ar
  31   18   36 1
  32   19   37 1
  33   20   21 1
  34   21   38 1
  35   21   39 1
  36   21   40 1
  37   22   23 1
  38   22   41 1
  39   23   24 1
  40   23   42 1
  41   23   43 1
  42   24   25 ar
  43   24   29 ar
  44   25   26 ar
  45   25   44 1
  46   26   27 ar
  47   26   45 1
  48   27   28 ar
  49   27   46 1
  50   28   29 ar
  51   28   47 1
  52   29   48 1
  53   30   49 1
  54   30   50 1

#	End of record

