#	Name: ASD01028033
#	Creating user name:	WinNT
#	Creation time:	15. 06. 2019 18:56

#	Modifying user name:	WinNT
#	Modification time:	15. 06. 2019 18:56

#	Program:	/corina/corina34_cracker 3.40 0067  02.08.2006

@<TRIPOS>MOLECULE
ASD01028033
  64   68    0    0    0
SMALL
NO_CHARGES


@<TRIPOS>ATOM
   1 C1            -0.0054     1.0870     0.3797 C.3     
   2 C2            -0.0391    -0.4036     0.7244 C.3     
   3 C3            -0.6346    -0.5910     2.1207 C.3     
   4 O4             1.2325     2.2125     2.4332 O.2     
   5 C5             1.9225     2.0738     1.4455 C.2     
   6 N6             1.4024     1.5317     0.3065 N.am    
   7 N7             3.6161     3.4157     2.5725 N.3     
   8 C8             3.3682     2.4977     1.4557 C.3     
   9 N9             2.9915     0.4217     4.9611 N.pl3   
  10 C10            4.0033     1.3059     5.3861 C.ar    
  11 C11            4.0271     2.5739     4.8220 C.ar    
  12 C12            2.9778     2.9506     3.8078 C.3     
  13 C13            4.9511     0.9410     6.3322 C.ar    
  14 C14            5.9305     1.8547     6.7043 C.ar    
  15 C15            5.9539     3.1205     6.1300 C.ar    
  16 C16            5.0028     3.4781     5.1915 C.ar    
  17 O17           -0.5966    -1.9750     2.4785 O.3     
  18 C18            0.1910    -2.3073     3.5363 C.ar    
  19 C19            1.1168    -1.4056     3.9833 C.ar    
  20 C20            1.9398    -1.7400     5.0656 C.ar    
  21 C21            2.9107    -0.8318     5.5630 C.ar    
  22 N22            3.6740    -1.2126     6.5672 N.ar    
  23 O23            5.1337    -0.2162     7.0248 O.3     
  24 C24            6.2718    -0.0392     7.8735 C.3     
  25 O25            6.7464     1.2893     7.6350 O.3     
  26 C26            0.0511    -3.5552     4.1589 C.ar    
  27 C27            0.8530    -3.9067     5.2237 C.ar    
  28 C28            1.8168    -3.0042     5.6893 C.ar    
  29 N29            2.6418    -3.2886     6.7079 N.ar    
  30 C30            3.5319    -2.4136     7.1145 C.ar    
  31 O31           -0.8858    -4.4292     3.7073 O.3     
  32 C32            2.1941     1.3975    -0.9188 C.3     
  33 C33            4.2581     1.2624     1.6071 C.3     
  34 C34            5.0563     3.6262     2.7711 C.3     
  35 C35           -0.9805    -5.6850     4.3825 C.3     
  36 Cl36           7.1811     4.2574     6.5936 Cl      
  37 H37           -0.4899     1.2499    -0.5830 H       
  38 H38           -0.5267     1.6520     1.1524 H       
  39 H39           -0.6523    -0.9316    -0.0059 H       
  40 H40            0.9745    -0.8040     0.7050 H       
  41 H41           -0.0561    -0.0139     2.8421 H       
  42 H42           -1.6677    -0.2436     2.1241 H       
  43 H43            3.6046     2.9984     0.5168 H       
  44 H44            2.3661     0.6800     4.2661 H       
  45 H45            2.3522     3.7459     4.2131 H       
  46 H46            2.3577     2.0812     3.5892 H       
  47 H47            5.0240     4.4626     4.7480 H       
  48 H48            1.2129    -0.4423     3.5045 H       
  49 H49            5.9813    -0.1514     8.9181 H       
  50 H50            7.0449    -0.7645     7.6197 H       
  51 H51            0.7384    -4.8713     5.6956 H       
  52 H52            4.1808    -2.6843     7.9342 H       
  53 H53            3.1977     1.7867    -0.7473 H       
  54 H54            2.2551     0.3458    -1.1987 H       
  55 H55            1.7185     1.9603    -1.7221 H       
  56 H56            4.0282     0.7621     2.5478 H       
  57 H57            4.0752     0.5790     0.7779 H       
  58 H58            5.3049     1.5661     1.6034 H       
  59 H59            5.5525     3.6812     1.8021 H       
  60 H60            5.2158     4.5577     3.3143 H       
  61 H61            5.4692     2.7961     3.3442 H       
  62 H62           -0.0287    -6.2109     4.3068 H       
  63 H63           -1.2197    -5.5159     5.4324 H       
  64 H64           -1.7653    -6.2861     3.9234 H       
@<TRIPOS>BOND
   1    1    2 1
   2    1    6 1
   3    1   37 1
   4    1   38 1
   5    2    3 1
   6    2   39 1
   7    2   40 1
   8    3   17 1
   9    3   41 1
  10    3   42 1
  11    4    5 2
  12    5    6 am
  13    5    8 1
  14    6   32 1
  15    7    8 1
  16    7   34 1
  17    7   12 1
  18    8   33 1
  19    8   43 1
  20    9   10 1
  21    9   21 1
  22    9   44 1
  23   10   11 ar
  24   10   13 ar
  25   11   12 1
  26   11   16 ar
  27   12   45 1
  28   12   46 1
  29   13   14 ar
  30   13   23 1
  31   14   15 ar
  32   14   25 1
  33   15   16 ar
  34   15   36 1
  35   16   47 1
  36   17   18 1
  37   18   19 ar
  38   18   26 ar
  39   19   20 ar
  40   19   48 1
  41   20   21 ar
  42   20   28 ar
  43   21   22 ar
  44   22   30 ar
  45   23   24 1
  46   24   25 1
  47   24   49 1
  48   24   50 1
  49   26   27 ar
  50   26   31 1
  51   27   28 ar
  52   27   51 1
  53   28   29 ar
  54   29   30 ar
  55   30   52 1
  56   31   35 1
  57   32   53 1
  58   32   54 1
  59   32   55 1
  60   33   56 1
  61   33   57 1
  62   33   58 1
  63   34   59 1
  64   34   60 1
  65   34   61 1
  66   35   62 1
  67   35   63 1
  68   35   64 1

#	End of record

