#	Name: ASD01883078
#	Creating user name:	WinNT
#	Creation time:	15. 06. 2019 19:45

#	Modifying user name:	WinNT
#	Modification time:	15. 06. 2019 19:45

#	Program:	/corina/corina34_cracker 3.40 0067  02.08.2006

@<TRIPOS>MOLECULE
ASD01883078
  53   56    0    0    0
SMALL
NO_CHARGES


@<TRIPOS>ATOM
   1 N1            -0.0162     1.3417     0.0094 N.am    
   2 C2             0.0021    -0.0041     0.0020 C.2     
   3 C3            -1.2159    -0.7274     0.0102 C.2     
   4 C4            -2.4262    -0.0109     0.0261 C.2     
   5 C5            -2.3786     1.3974     0.0332 C.2     
   6 C6            -1.1851     2.0327     0.0299 C.2     
   7 O7             1.0657    -0.6000    -0.0122 O.2     
   8 C8            -1.2149    -2.1593     0.0021 C.1     
   9 N9            -1.2142    -3.2953    -0.0044 N.1     
  10 C10            1.2513     2.0763     0.0013 C.3     
  11 C11            1.6723     2.3358    -1.4223 C.ar    
  12 C12            1.2645     3.4912    -2.0629 C.ar    
  13 C13            1.6491     3.7314    -3.3678 C.ar    
  14 C14            2.4452     2.8122    -4.0354 C.ar    
  15 C15            2.8532     1.6537    -3.3904 C.ar    
  16 C16            2.4705     1.4208    -2.0836 C.ar    
  17 C17           -3.7215    -0.7207     0.0347 C.ar    
  18 C18           -4.5704    -0.6152     1.1398 C.ar    
  19 C19           -5.7770    -1.2779     1.1448 C.ar    
  20 C20           -6.1515    -2.0529     0.0510 C.ar    
  21 C21           -5.3080    -2.1603    -1.0509 C.ar    
  22 C22           -4.1031    -1.4946    -1.0647 C.ar    
  23 N23           -7.3720    -2.7222     0.0593 N.3     
  24 C24           -7.5672    -3.4774    -1.1869 C.3     
  25 C25           -8.8903    -4.2439    -1.1108 C.3     
  26 O26           -9.9557    -3.3224    -0.8636 O.3     
  27 C27           -9.7982    -2.5704     0.3426 C.3     
  28 C28           -8.4843    -1.7869     0.2813 C.3     
  29 O29            2.8246     3.0460    -5.3193 O.3     
  30 C30            3.6442     2.0562    -5.9441 C.3     
  31 F31            2.9625     0.8348    -5.9701 F       
  32 F32            3.9394     2.4534    -7.2527 F       
  33 F33            4.8332     1.9113    -5.2213 F       
  34 H34           -3.2949     1.9689     0.0450 H       
  35 H35           -1.1610     3.1124     0.0354 H       
  36 H36            1.1243     3.0257     0.5214 H       
  37 H37            2.0168     1.4857     0.5046 H       
  38 H38            0.6444     4.2063    -1.5428 H       
  39 H39            1.3299     4.6339    -3.8679 H       
  40 H40            3.4730     0.9366    -3.9081 H       
  41 H41            2.7878     0.5191    -1.5810 H       
  42 H42           -4.2801    -0.0146     1.9891 H       
  43 H43           -6.4335    -1.1968     1.9985 H       
  44 H44           -5.6012    -2.7627    -1.8980 H       
  45 H45           -3.4492    -1.5781    -1.9201 H       
  46 H46           -7.5943    -2.7873    -2.0302 H       
  47 H47           -6.7457    -4.1816    -1.3182 H       
  48 H48           -9.0669    -4.7597    -2.0547 H       
  49 H49           -8.8433    -4.9717    -0.3008 H       
  50 H50          -10.6314    -1.8759     0.4500 H       
  51 H51           -9.7776    -3.2496     1.1949 H       
  52 H52           -8.3322    -1.2572     1.2217 H       
  53 H53           -8.5260    -1.0698    -0.5385 H       
@<TRIPOS>BOND
   1    1    2 am
   2    1   10 1
   3    1    6 1
   4    2    3 1
   5    2    7 2
   6    3    4 2
   7    3    8 1
   8    4    5 1
   9    4   17 1
  10    5    6 2
  11    5   34 1
  12    6   35 1
  13    8    9 3
  14   10   11 1
  15   10   36 1
  16   10   37 1
  17   11   12 ar
  18   11   16 ar
  19   12   13 ar
  20   12   38 1
  21   13   14 ar
  22   13   39 1
  23   14   15 ar
  24   14   29 1
  25   15   16 ar
  26   15   40 1
  27   16   41 1
  28   17   18 ar
  29   17   22 ar
  30   18   19 ar
  31   18   42 1
  32   19   20 ar
  33   19   43 1
  34   20   21 ar
  35   20   23 1
  36   21   22 ar
  37   21   44 1
  38   22   45 1
  39   23   24 1
  40   23   28 1
  41   24   25 1
  42   24   46 1
  43   24   47 1
  44   25   26 1
  45   25   48 1
  46   25   49 1
  47   26   27 1
  48   27   28 1
  49   27   50 1
  50   27   51 1
  51   28   52 1
  52   28   53 1
  53   29   30 1
  54   30   31 1
  55   30   32 1
  56   30   33 1

#	End of record

