#	Name: ASD01880029
#	Creating user name:	WinNT
#	Creation time:	15. 06. 2019 19:39

#	Modifying user name:	WinNT
#	Modification time:	15. 06. 2019 19:39

#	Program:	/corina/corina34_cracker 3.40 0067  02.08.2006

@<TRIPOS>MOLECULE
ASD01880029
  60   62    0    0    0
SMALL
NO_CHARGES


@<TRIPOS>ATOM
   1 C1            -0.0167     1.3832     0.0096 C.ar    
   2 C2             0.0021    -0.0041     0.0020 C.ar    
   3 C3            -1.1903    -0.7238     0.0096 C.ar    
   4 C4            -2.3894    -0.0733     0.0250 C.ar    
   5 C5            -2.4280     1.3279     0.0333 C.ar    
   6 C6            -1.2255     2.0574     0.0306 C.ar    
   7 C7            -3.7142     2.0288     0.0499 C.2     
   8 C8            -5.0003     1.2434     0.0580 C.3     
   9 C9            -6.1872     2.2086     0.0750 C.3     
  10 C10           -6.2111     3.0108    -1.2276 C.3     
  11 C11           -7.4883     1.4147     0.2090 C.3     
  12 O12           -1.2502     3.4132     0.0391 O.3     
  13 O13            1.1880    -0.6629    -0.0133 O.3     
  14 C14            1.1367    -2.0909    -0.0205 C.3     
  15 C15            2.5599    -2.6523    -0.0376 C.3     
  16 C16            2.5050    -4.1813    -0.0453 C.3     
  17 C17            3.9282    -4.7426    -0.0625 C.3     
  18 O18            3.8770    -6.1707    -0.0696 O.3     
  19 C19            5.0652    -6.8308    -0.0850 C.ar    
  20 C20            5.0878    -8.2180    -0.0927 C.ar    
  21 C21            6.2944    -8.8889    -0.1083 C.ar    
  22 C22            7.4852    -8.1752    -0.1167 C.ar    
  23 C23            7.4620    -6.7871    -0.1095 C.ar    
  24 C24            6.2549    -6.1171    -0.0988 C.ar    
  25 N25            8.7116    -8.8565    -0.1321 N.pl3   
  26 N26            8.9018   -10.2480    -0.1410 N.2     
  27 C27           10.1932   -10.4530    -0.1551 C.2     
  28 N28           10.8190    -9.2767    -0.1555 N.2     
  29 C29            9.9409    -8.3063    -0.1472 C.2     
  30 C30            1.2775     2.1551     0.0014 C.3     
  31 O31           -3.7440     3.2418     0.0571 O.2     
  32 H32           -1.1656    -1.8035     0.0028 H       
  33 H33           -3.3097    -0.6384     0.0304 H       
  34 H34           -5.0512     0.6206    -0.8351 H       
  35 H35           -5.0339     0.6104     0.9447 H       
  36 H36           -6.0890     2.8904     0.9198 H       
  37 H37           -7.0567     3.6985    -1.2154 H       
  38 H38           -5.2842     3.5764    -1.3230 H       
  39 H39           -6.3093     2.3291    -2.0724 H       
  40 H40           -7.4713     0.8432     1.1370 H       
  41 H41           -8.3339     2.1024     0.2211 H       
  42 H42           -7.5865     0.7330    -0.6358 H       
  43 H43           -1.2520     3.8011     0.9249 H       
  44 H44            0.6190    -2.4404     0.8728 H       
  45 H45            0.6013    -2.4309    -0.9070 H       
  46 H46            3.0776    -2.3028    -0.9310 H       
  47 H47            3.0953    -2.3124     0.8489 H       
  48 H48            1.9874    -4.5307     0.8480 H       
  49 H49            1.9697    -4.5212    -0.9318 H       
  50 H50            4.4459    -4.3931    -0.9558 H       
  51 H51            4.4636    -4.4027     0.8241 H       
  52 H52            4.1614    -8.7732    -0.0861 H       
  53 H53            6.3119    -9.9688    -0.1135 H       
  54 H54            8.3881    -6.2314    -0.1161 H       
  55 H55            6.2368    -5.0372    -0.0932 H       
  56 H56           10.6748   -11.4196    -0.1645 H       
  57 H57           10.1632    -7.2495    -0.1460 H       
  58 H58            1.5797     2.3468    -1.0281 H       
  59 H59            1.1386     3.1028     0.5217 H       
  60 H60            2.0503     1.5741     0.5048 H       
@<TRIPOS>BOND
   1    1    2 ar
   2    1   30 1
   3    1    6 ar
   4    2    3 ar
   5    2   13 1
   6    3    4 ar
   7    3   32 1
   8    4    5 ar
   9    4   33 1
  10    5    6 ar
  11    5    7 1
  12    6   12 1
  13    7    8 1
  14    7   31 2
  15    8    9 1
  16    8   34 1
  17    8   35 1
  18    9   10 1
  19    9   11 1
  20    9   36 1
  21   10   37 1
  22   10   38 1
  23   10   39 1
  24   11   40 1
  25   11   41 1
  26   11   42 1
  27   12   43 1
  28   13   14 1
  29   14   15 1
  30   14   44 1
  31   14   45 1
  32   15   16 1
  33   15   46 1
  34   15   47 1
  35   16   17 1
  36   16   48 1
  37   16   49 1
  38   17   18 1
  39   17   50 1
  40   17   51 1
  41   18   19 1
  42   19   20 ar
  43   19   24 ar
  44   20   21 ar
  45   20   52 1
  46   21   22 ar
  47   21   53 1
  48   22   23 ar
  49   22   25 1
  50   23   24 ar
  51   23   54 1
  52   24   55 1
  53   25   26 1
  54   25   29 1
  55   26   27 2
  56   27   28 1
  57   27   56 1
  58   28   29 2
  59   29   57 1
  60   30   58 1
  61   30   59 1
  62   30   60 1

#	End of record

