#	Name: ASD03331517
#	Creating user name:	WinNT
#	Creation time:	15. 06. 2019 20:39

#	Modifying user name:	WinNT
#	Modification time:	15. 06. 2019 20:39

#	Program:	/corina/corina34_cracker 3.40 0067  02.08.2006

@<TRIPOS>MOLECULE
ASD03331517
  66   68    0    0    0
SMALL
NO_CHARGES


@<TRIPOS>ATOM
   1 C1             0.6317     1.2900     0.8058 C.ar    
   2 C2             0.5579    -0.1535     0.4910 C.2     
   3 N3            -0.5565    -0.9344     0.5918 N.pl3   
   4 C4            -0.2119    -2.1887     0.1973 C.2     
   5 C5             1.1119    -2.1597    -0.1205 C.2     
   6 N6             1.5519    -0.8955     0.0626 N.2     
   7 C7             1.9186    -3.3014    -0.5867 C.2     
   8 N8             3.2259    -3.1327    -0.8677 N.am    
   9 C9             1.6720     2.0657     0.2935 C.ar    
  10 O10            1.4047    -4.3959    -0.7178 O.2     
  11 C11            4.0280    -4.2677    -1.3311 C.3     
  12 C12            1.7360     3.4131     0.5908 C.ar    
  13 C13            0.7679     3.9938     1.3978 C.ar    
  14 C14           -0.2661     3.2261     1.9084 C.ar    
  15 C15           -0.3422     1.8813     1.6116 C.ar    
  16 C16           -1.8847    -0.5199     1.0528 C.3     
  17 C17           -2.9420    -1.4218     0.4104 C.3     
  18 C18           -3.1534    -2.6645     1.2705 C.3     
  19 N19           -1.9225    -3.4517     1.3647 N.3     
  20 C20           -1.1414    -3.3717     0.1205 C.3     
  21 C21            3.8724    -4.4175    -2.8458 C.3     
  22 N22            6.3014    -5.0736    -0.7828 N.am    
  23 C23            5.4777    -4.0284    -0.9963 C.2     
  24 C24            7.7320    -4.8460    -0.5643 C.3     
  25 O25            5.9031    -2.8953    -0.9189 O.2     
  26 C26            4.2443    -3.1002    -3.5294 C.3     
  27 C27            4.7960    -5.5301    -3.3458 C.3     
  28 C28            2.4213    -4.7720    -3.1768 C.3     
  29 C29           -2.2161    -4.8483     1.7130 C.3     
  30 F30            0.8341     5.3119     1.6867 F       
  31 C31           -4.2606    -0.6550     0.2919 C.3     
  32 F32            2.7425     4.1662     0.0958 F       
  33 C33           -2.8281    -5.5578     0.5035 C.3     
  34 H34            3.6358    -2.2598    -0.7631 H       
  35 H35            2.4258     1.6135    -0.3339 H       
  36 H36            3.6870    -5.1785    -0.8390 H       
  37 H37           -1.0168     3.6826     2.5366 H       
  38 H38           -1.1490     1.2844     2.0105 H       
  39 H39           -1.9386    -0.6106     2.1376 H       
  40 H40           -2.0642     0.5155     0.7631 H       
  41 H41           -2.6077    -1.7213    -0.5829 H       
  42 H42           -3.4609    -2.3596     2.2708 H       
  43 H43           -3.9377    -3.2779     0.8270 H       
  44 H44           -1.8167    -3.2502    -0.7265 H       
  45 H45           -0.5595    -4.2849    -0.0039 H       
  46 H46            5.9470    -5.9764    -0.7738 H       
  47 H47            8.2327    -5.8019    -0.4106 H       
  48 H48            8.1581    -4.3486    -1.4356 H       
  49 H49            7.8698    -4.2181     0.3160 H       
  50 H50            5.2780    -2.8476    -3.2936 H       
  51 H51            4.1334    -3.2069    -4.6085 H       
  52 H52            3.5863    -2.3076    -3.1732 H       
  53 H53            4.4993    -6.4778    -2.8965 H       
  54 H54            4.7221    -5.6034    -4.4308 H       
  55 H55            5.8244    -5.3016    -3.0662 H       
  56 H56            1.7633    -3.9793    -2.8206 H       
  57 H57            2.3104    -4.8787    -4.2559 H       
  58 H58            2.1563    -5.7104    -2.6898 H       
  59 H59           -1.2937    -5.3524     2.0016 H       
  60 H60           -2.9202    -4.8750     2.5446 H       
  61 H61           -4.1122     0.2296    -0.3274 H       
  62 H62           -5.0141    -1.2963    -0.1653 H       
  63 H63           -4.5951    -0.3520     1.2841 H       
  64 H64           -3.1376    -6.5629     0.7901 H       
  65 H65           -3.6946    -4.9968     0.1533 H       
  66 H66           -2.0882    -5.6191    -0.2945 H       
@<TRIPOS>BOND
   1    1    2 1
   2    1    9 ar
   3    1   15 ar
   4    2    3 1
   5    2    6 2
   6    3    4 1
   7    3   16 1
   8    4    5 2
   9    4   20 1
  10    5    6 1
  11    5    7 1
  12    7    8 am
  13    7   10 2
  14    8   11 1
  15    8   34 1
  16    9   12 ar
  17    9   35 1
  18   11   21 1
  19   11   23 1
  20   11   36 1
  21   12   13 ar
  22   12   32 1
  23   13   14 ar
  24   13   30 1
  25   14   15 ar
  26   14   37 1
  27   15   38 1
  28   16   17 1
  29   16   39 1
  30   16   40 1
  31   17   18 1
  32   17   31 1
  33   17   41 1
  34   18   19 1
  35   18   42 1
  36   18   43 1
  37   19   20 1
  38   19   29 1
  39   20   44 1
  40   20   45 1
  41   21   26 1
  42   21   27 1
  43   21   28 1
  44   22   23 am
  45   22   24 1
  46   22   46 1
  47   23   25 2
  48   24   47 1
  49   24   48 1
  50   24   49 1
  51   26   50 1
  52   26   51 1
  53   26   52 1
  54   27   53 1
  55   27   54 1
  56   27   55 1
  57   28   56 1
  58   28   57 1
  59   28   58 1
  60   29   33 1
  61   29   59 1
  62   29   60 1
  63   31   61 1
  64   31   62 1
  65   31   63 1
  66   33   64 1
  67   33   65 1
  68   33   66 1

#	End of record

