#	Name: ASD01150838
#	Creating user name:	WinNT
#	Creation time:	15. 06. 2019 19:05

#	Modifying user name:	WinNT
#	Modification time:	15. 06. 2019 19:05

#	Program:	/corina/corina34_cracker 3.40 0067  02.08.2006

@<TRIPOS>MOLECULE
ASD01150838
  62   65    0    0    0
SMALL
NO_CHARGES


@<TRIPOS>ATOM
   1 C1            -0.2121     1.0859    -1.8263 C.2     
   2 N2            -0.1598    -0.1889    -1.5106 N.2     
   3 C3             1.0872    -0.6465    -1.6592 C.2     
   4 C4             1.8753     0.4097    -2.0981 C.2     
   5 N5             1.0225     1.5095    -2.1982 N.pl3   
   6 C6             3.2563     0.3774    -2.3834 C.2     
   7 O7             3.8813    -0.6591    -2.2505 O.2     
   8 O8             3.8853     1.4958    -2.8039 O.3     
   9 N9             1.5180    -1.9454    -1.4173 N.am    
  10 C10            0.6425    -2.8774    -0.9914 C.2     
  11 O11           -0.5241    -2.5818    -0.8188 O.2     
  12 C12            2.4370    -4.6075    -0.9293 C.ar    
  13 C13            1.1000    -4.2567    -0.7345 C.ar    
  14 C14            0.1979    -5.2349    -0.2906 C.ar    
  15 C15            0.6734    -6.5102    -0.0638 C.ar    
  16 C16            2.0206    -6.7825    -0.2809 C.ar    
  17 N17            2.8479    -5.8368    -0.7001 N.ar    
  18 O18            2.4930    -8.0331    -0.0598 O.3     
  19 C19            3.8310    -8.2397    -0.1780 C.ar    
  20 C20            4.6907    -7.8175     0.8259 C.ar    
  21 C21            6.0503    -8.0287     0.7034 C.ar    
  22 C22            6.5547    -8.6603    -0.4185 C.ar    
  23 C23            5.7001    -9.0820    -1.4203 C.ar    
  24 C24            4.3391    -8.8784    -1.3001 C.ar    
  25 O25           -1.3238     1.8541    -1.7915 O.3     
  26 C26           -2.5364     1.2221    -1.3764 C.3     
  27 C27            1.3736     2.8042    -2.6055 C.ar    
  28 C28            1.2876     3.8618    -1.7102 C.ar    
  29 C29            1.6344     5.1365    -2.1131 C.ar    
  30 C30            2.0678     5.3600    -3.4092 C.ar    
  31 C31            2.1539     4.3065    -4.3038 C.ar    
  32 C32            1.8134     3.0294    -3.9030 C.ar    
  33 F33            2.4066     6.6076    -3.8016 F       
  34 C34            5.2845     1.3905    -3.0744 C.3     
  35 C35            5.5147     0.3515    -4.1736 C.3     
  36 C36            5.8183     2.7481    -3.5359 C.3     
  37 C37            6.0186     0.9593    -1.8031 C.3     
  38 H38            2.4487    -2.1813    -1.5550 H       
  39 H39            3.1401    -3.8643    -1.2751 H       
  40 H40           -0.8429    -4.9956    -0.1299 H       
  41 H41            0.0074    -7.2883     0.2788 H       
  42 H42            4.2973    -7.3238     1.7022 H       
  43 H43            6.7200    -7.6999     1.4843 H       
  44 H44            7.6180    -8.8242    -0.5126 H       
  45 H45            6.0966    -9.5748    -2.2958 H       
  46 H46            3.6716    -9.2122    -2.0806 H       
  47 H47           -2.4164     0.8347    -0.3647 H       
  48 H48           -3.3490     1.9484    -1.3933 H       
  49 H49           -2.7689     0.4011    -2.0547 H       
  50 H50            0.9493     3.6879    -0.6994 H       
  51 H51            1.5672     5.9595    -1.4171 H       
  52 H52            2.4917     4.4828    -5.3143 H       
  53 H53            1.8849     2.2073    -4.5996 H       
  54 H54            4.9917     0.6587    -5.0792 H       
  55 H55            6.5820     0.2712    -4.3799 H       
  56 H56            5.1344    -0.6157    -3.8447 H       
  57 H57            5.6543     3.4883    -2.7528 H       
  58 H58            6.8856     2.6678    -3.7422 H       
  59 H59            5.2953     3.0553    -4.4416 H       
  60 H60            5.6384    -0.0078    -1.4743 H       
  61 H61            7.0859     0.8790    -2.0094 H       
  62 H62            5.8546     1.6995    -1.0200 H       
@<TRIPOS>BOND
   1    1    2 2
   2    1    5 1
   3    1   25 1
   4    2    3 1
   5    3    4 2
   6    3    9 1
   7    4    5 1
   8    4    6 1
   9    5   27 1
  10    6    7 2
  11    6    8 1
  12    8   34 1
  13    9   10 am
  14    9   38 1
  15   10   11 2
  16   10   13 1
  17   12   13 ar
  18   12   17 ar
  19   12   39 1
  20   13   14 ar
  21   14   15 ar
  22   14   40 1
  23   15   16 ar
  24   15   41 1
  25   16   17 ar
  26   16   18 1
  27   18   19 1
  28   19   20 ar
  29   19   24 ar
  30   20   21 ar
  31   20   42 1
  32   21   22 ar
  33   21   43 1
  34   22   23 ar
  35   22   44 1
  36   23   24 ar
  37   23   45 1
  38   24   46 1
  39   25   26 1
  40   26   47 1
  41   26   48 1
  42   26   49 1
  43   27   28 ar
  44   27   32 ar
  45   28   29 ar
  46   28   50 1
  47   29   30 ar
  48   29   51 1
  49   30   31 ar
  50   30   33 1
  51   31   32 ar
  52   31   52 1
  53   32   53 1
  54   34   35 1
  55   34   37 1
  56   34   36 1
  57   35   54 1
  58   35   55 1
  59   35   56 1
  60   36   57 1
  61   36   58 1
  62   36   59 1
  63   37   60 1
  64   37   61 1
  65   37   62 1

#	End of record

