#	Name: ASD01812554
#	Creating user name:	WinNT
#	Creation time:	15. 06. 2019 19:28

#	Modifying user name:	WinNT
#	Modification time:	15. 06. 2019 19:28

#	Program:	/corina/corina34_cracker 3.40 0067  02.08.2006

@<TRIPOS>MOLECULE
ASD01812554
  57   61    0    0    0
SMALL
NO_CHARGES


@<TRIPOS>ATOM
   1 C1            -0.0184     1.5028     0.0103 C.3     
   2 C2             0.0021    -0.0041     0.0020 C.2     
   3 C3            -1.0713    -0.8269     0.0024 C.2     
   4 C4            -0.5046    -2.1291    -0.0072 C.2     
   5 N5            -1.1935    -3.3422    -0.0111 N.am    
   6 C6            -2.5412    -3.3519    -0.0055 C.2     
   7 O7            -3.1551    -2.3060     0.0029 O.2     
   8 C8            -3.2854    -4.6623    -0.0097 C.3     
   9 S9            -5.0711    -4.3437    -0.0004 S.o2    
  10 O10           -5.4707    -3.7802     1.2414 O.2     
  11 O11           -5.4810    -3.7664    -1.2325 O.2     
  12 C12           -5.8037    -5.9461    -0.0063 C.2     
  13 C13           -6.5510    -6.4857     0.9689 C.2     
  14 N14           -6.9465    -7.7468     0.6098 N.pl3   
  15 C15           -7.7747    -8.6346     1.4297 C.3     
  16 C16           -6.8874    -9.5619     2.2195 C.ar    
  17 C17           -6.5104   -10.7797     1.6832 C.ar    
  18 C18           -5.6964   -11.6361     2.4029 C.ar    
  19 C19           -5.2557   -11.2788     3.6608 C.ar    
  20 C20           -5.6321   -10.0526     4.2060 C.ar    
  21 C21           -6.4478    -9.1918     3.4746 C.ar    
  22 C22           -5.1614    -9.6630     5.5580 C.ar    
  23 C23           -5.5336    -8.4399     6.1228 C.ar    
  24 C24           -5.0738    -8.1171     7.3831 C.ar    
  25 N25           -4.2940    -8.9447     8.0519 N.ar    
  26 C26           -3.9196   -10.1081     7.5550 C.ar    
  27 C27           -4.3384   -10.5115     6.3038 C.ar    
  28 C28           -6.4502    -8.0557    -0.6370 C.ar    
  29 C29           -6.5480    -9.1780    -1.4532 C.ar    
  30 C30           -5.9241    -9.1912    -2.6836 C.ar    
  31 F31           -6.0226   -10.2839    -3.4719 F       
  32 C32           -5.1957    -8.0910    -3.1201 C.ar    
  33 C33           -5.0860    -6.9693    -2.3265 C.ar    
  34 F34           -4.3771    -5.9016    -2.7539 F       
  35 C35           -5.7179    -6.9399    -1.0799 C.ar    
  36 N36            0.7919    -1.9629    -0.0122 N.2     
  37 O37            1.0879    -0.7906    -0.0130 O.3     
  38 H38            1.0042     1.8801     0.0026 H       
  39 H39           -0.5455     1.8639    -0.8728 H       
  40 H40           -0.5286     1.8543     0.9071 H       
  41 H41           -2.1169    -0.5564     0.0089 H       
  42 H42           -0.7025    -4.1788    -0.0178 H       
  43 H43           -3.0217    -5.2270    -0.9040 H       
  44 H44           -3.0142    -5.2370     0.8760 H       
  45 H45           -6.8027    -5.9981     1.8991 H       
  46 H46           -8.3785    -8.0388     2.1142 H       
  47 H47           -8.4290    -9.2202     0.7839 H       
  48 H48           -6.8530   -11.0633     0.6990 H       
  49 H49           -5.4056   -12.5861     1.9795 H       
  50 H50           -4.6205   -11.9482     4.2219 H       
  51 H51           -6.7392    -8.2387     3.8906 H       
  52 H52           -6.1714    -7.7575     5.5808 H       
  53 H53           -5.3557    -7.1741     7.8277 H       
  54 H54           -3.2802   -10.7551     8.1372 H       
  55 H55           -4.0318   -11.4672     5.9050 H       
  56 H56           -7.1116   -10.0384    -1.1238 H       
  57 H57           -4.7128    -8.1152    -4.0859 H       
@<TRIPOS>BOND
   1    1    2 1
   2    1   38 1
   3    1   39 1
   4    1   40 1
   5    2   37 1
   6    2    3 2
   7    3    4 1
   8    3   41 1
   9    4    5 1
  10    4   36 2
  11    5    6 am
  12    5   42 1
  13    6    7 2
  14    6    8 1
  15    8    9 1
  16    8   43 1
  17    8   44 1
  18    9   10 2
  19    9   11 2
  20    9   12 1
  21   12   35 1
  22   12   13 2
  23   13   14 1
  24   13   45 1
  25   14   15 1
  26   14   28 1
  27   15   16 1
  28   15   46 1
  29   15   47 1
  30   16   21 ar
  31   16   17 ar
  32   17   18 ar
  33   17   48 1
  34   18   19 ar
  35   18   49 1
  36   19   20 ar
  37   19   50 1
  38   20   21 ar
  39   20   22 1
  40   21   51 1
  41   22   27 ar
  42   22   23 ar
  43   23   24 ar
  44   23   52 1
  45   24   25 ar
  46   24   53 1
  47   25   26 ar
  48   26   27 ar
  49   26   54 1
  50   27   55 1
  51   28   35 ar
  52   28   29 ar
  53   29   30 ar
  54   29   56 1
  55   30   31 1
  56   30   32 ar
  57   32   33 ar
  58   32   57 1
  59   33   34 1
  60   33   35 ar
  61   36   37 1

#	End of record

