#	Name: ASD03740279
#	Creating user name:	WinNT
#	Creation time:	15. 06. 2019 20:47

#	Modifying user name:	WinNT
#	Modification time:	15. 06. 2019 20:47

#	Program:	/corina/corina34_cracker 3.40 0067  02.08.2006

@<TRIPOS>MOLECULE
ASD03740279
  68   71    0    0    0
SMALL
NO_CHARGES


@<TRIPOS>ATOM
   1 C1             1.0332     1.6247     0.8284 C.ar    
   2 C2             1.1793     0.2544     0.9353 C.ar    
   3 C3             2.4174    -0.2889     1.2222 C.ar    
   4 C4             3.5115     0.5400     1.4024 C.ar    
   5 C5             3.3639     1.9127     1.2951 C.ar    
   6 C6             2.1252     2.4535     1.0082 C.ar    
   7 C7            -2.3401     2.2277     3.6419 C.2     
   8 C8            -1.9594     3.5304     3.6821 C.2     
   9 C9            -1.0969     3.7662     2.4635 C.3     
  10 N10           -1.0394     2.4816     1.7552 N.am    
  11 C11           -1.7687     1.5923     2.4528 C.2     
  12 C12           -4.7156    -0.3104     6.3643 C.ar    
  13 C13           -3.4079    -0.5304     5.9490 C.ar    
  14 C14           -2.8187    -1.7693     6.1917 C.ar    
  15 C15           -3.5256    -2.7600     6.8400 C.ar    
  16 C16           -4.8308    -2.5304     7.2560 C.ar    
  17 C17           -5.4237    -1.2973     7.0145 C.ar    
  18 C18           -3.1932     1.5542     4.6456 C.2     
  19 N19           -2.6744     0.4611     5.3047 N.pl3   
  20 S20           -5.4630     1.2555     6.0389 S.o2    
  21 C21           -4.4149     2.0419     4.8538 C.2     
  22 O22           -6.6945     0.9904     5.3814 O.2     
  23 O23           -5.3624     2.0120     7.2375 O.2     
  24 N24           -5.5457    -3.5371     7.9152 N.am    
  25 S25           -4.8236    -4.4104     9.1228 S.o2    
  26 C26           -4.5091    -3.1963    10.4334 C.3     
  27 O27           -5.8214    -5.3366     9.5301 O.2     
  28 O28           -3.6011    -4.8548     8.5509 O.2     
  29 O29           -2.2865     4.4359     4.6241 O.3     
  30 O30           -1.9303     0.4273     2.1407 O.2     
  31 C31           -0.3160     2.2154     0.5094 C.3     
  32 C32            2.5763    -1.7829     1.3392 C.3     
  33 C33           -1.7294     4.8338     1.5685 C.3     
  34 C34           -1.9349     6.1182     2.3741 C.3     
  35 C35           -2.5674     7.1858     1.4791 C.3     
  36 C36           -0.8054     5.1180     0.3826 C.3     
  37 C37           -3.0803     4.3329     1.0538 C.3     
  38 F38            4.7221     0.0101     1.6833 F       
  39 H39            0.3256    -0.3921     0.7950 H       
  40 H40            4.2167     2.5604     1.4358 H       
  41 H41            2.0099     3.5241     0.9244 H       
  42 H42           -0.0957     4.0735     2.7657 H       
  43 H43           -1.8043    -1.9546     5.8705 H       
  44 H44           -3.0628    -3.7182     7.0246 H       
  45 H45           -6.4380    -1.1125     7.3363 H       
  46 H46           -1.7084     0.3749     5.3213 H       
  47 H47           -4.7593     2.9073     4.3071 H       
  48 H48           -6.4642    -3.7232     7.6647 H       
  49 H49           -5.4532    -2.7580    10.7569 H       
  50 H50           -4.0293    -3.6900    11.2784 H       
  51 H51           -3.8558    -2.4114    10.0523 H       
  52 H52           -2.9047     4.1511     5.3110 H       
  53 H53           -0.1838     3.1474    -0.0402 H       
  54 H54           -0.8858     1.5127    -0.0985 H       
  55 H55            2.8226    -2.1997     0.3626 H       
  56 H56            3.3771    -2.0092     2.0432 H       
  57 H57            1.6441    -2.2206     1.6964 H       
  58 H58           -2.5932     5.9158     3.2190 H       
  59 H59           -0.9725     6.4751     2.7408 H       
  60 H60           -1.9091     7.3883     0.6343 H       
  61 H61           -3.5299     6.8290     1.1125 H       
  62 H62           -2.7139     8.1009     2.0530 H       
  63 H63           -0.9643     4.3659    -0.3902 H       
  64 H64           -1.0259     6.1061    -0.0212 H       
  65 H65            0.2324     5.0844     0.7144 H       
  66 H66           -3.7386     4.1304     1.8987 H       
  67 H67           -3.5309     5.0935     0.4162 H       
  68 H68           -2.9339     3.4178     0.4799 H       
@<TRIPOS>BOND
   1    1    2 ar
   2    1    6 ar
   3    1   31 1
   4    2    3 ar
   5    2   39 1
   6    3    4 ar
   7    3   32 1
   8    4    5 ar
   9    4   38 1
  10    5    6 ar
  11    5   40 1
  12    6   41 1
  13    7    8 2
  14    7   11 1
  15    7   18 1
  16    8    9 1
  17    8   29 1
  18    9   10 1
  19    9   33 1
  20    9   42 1
  21   10   11 am
  22   10   31 1
  23   11   30 2
  24   12   13 ar
  25   12   17 ar
  26   12   20 1
  27   13   14 ar
  28   13   19 1
  29   14   15 ar
  30   14   43 1
  31   15   16 ar
  32   15   44 1
  33   16   17 ar
  34   16   24 1
  35   17   45 1
  36   18   19 1
  37   18   21 2
  38   19   46 1
  39   20   21 1
  40   20   22 2
  41   20   23 2
  42   21   47 1
  43   24   25 am
  44   24   48 1
  45   25   26 1
  46   25   27 2
  47   25   28 2
  48   26   49 1
  49   26   50 1
  50   26   51 1
  51   29   52 1
  52   31   53 1
  53   31   54 1
  54   32   55 1
  55   32   56 1
  56   32   57 1
  57   33   34 1
  58   33   36 1
  59   33   37 1
  60   34   35 1
  61   34   58 1
  62   34   59 1
  63   35   60 1
  64   35   61 1
  65   35   62 1
  66   36   63 1
  67   36   64 1
  68   36   65 1
  69   37   66 1
  70   37   67 1
  71   37   68 1

#	End of record

