#	Name: ASD01916240
#	Creating user name:	WinNT
#	Creation time:	15. 06. 2019 20:07

#	Modifying user name:	WinNT
#	Modification time:	15. 06. 2019 20:07

#	Program:	/corina/corina34_cracker 3.40 0067  02.08.2006

@<TRIPOS>MOLECULE
ASD01916240
  34   36    0    0    0
SMALL
NO_CHARGES


@<TRIPOS>ATOM
   1 C1             0.4261     1.2275    -0.4143 C.ar    
   2 C2             0.6388    -0.1378    -0.3268 C.ar    
   3 C3             1.7856    -0.6250     0.2721 C.ar    
   4 C4             2.7316     0.2611     0.7895 C.ar    
   5 C5             2.5150     1.6367     0.6995 C.ar    
   6 C6             1.3628     2.1149     0.0982 C.ar    
   7 O7             1.1491     3.4540     0.0092 O.3     
   8 C8             1.6341     4.1065    -1.0799 C.ar    
   9 C9             1.5442     5.4911    -1.1808 C.ar    
  10 N10            2.0281     6.0890    -2.2570 N.ar    
  11 C11            2.5888     5.3911    -3.2241 C.ar    
  12 N12            2.6928     4.0786    -3.1655 N.ar    
  13 C13            2.2384     3.4076    -2.1200 C.ar    
  14 C14            3.9589    -0.2558     1.4310 C.2     
  15 N15            4.1657    -1.5848     1.5171 N.am    
  16 O16            4.7816     0.5177     1.8810 O.2     
  17 C17            5.3189    -2.0706     2.1199 C.2     
  18 S18            6.5551    -1.1004     2.7933 S.3     
  19 C19            7.4566    -2.5446     3.2460 C.2     
  20 C20            6.7549    -3.6101     2.8546 C.2     
  21 N21            5.6119    -3.3258     2.2589 N.2     
  22 F22           -0.2767    -0.9959    -0.8274 F       
  23 C23            7.2266    -5.0236     3.0797 C.3     
  24 F24            6.7543    -5.4817     4.3143 F       
  25 F25            6.7382    -5.8463     2.0591 F       
  26 F26            8.6253    -5.0548     3.0747 F       
  27 H27           -0.4694     1.6035    -0.8867 H       
  28 H28            1.9491    -1.6904     0.3399 H       
  29 H29            3.2437     2.3266     1.0986 H       
  30 H30            1.0857     6.0693    -0.3923 H       
  31 H31            2.9738     5.9095    -4.0898 H       
  32 H32            2.3273     2.3320    -2.0784 H       
  33 H33            3.5092    -2.2021     1.1581 H       
  34 H34            8.4107    -2.5643     3.7516 H       
@<TRIPOS>BOND
   1    1    2 ar
   2    1    6 ar
   3    1   27 1
   4    2    3 ar
   5    2   22 1
   6    3    4 ar
   7    3   28 1
   8    4    5 ar
   9    4   14 1
  10    5    6 ar
  11    5   29 1
  12    6    7 1
  13    7    8 1
  14    8    9 ar
  15    8   13 ar
  16    9   10 ar
  17    9   30 1
  18   10   11 ar
  19   11   12 ar
  20   11   31 1
  21   12   13 ar
  22   13   32 1
  23   14   15 am
  24   14   16 2
  25   15   17 1
  26   15   33 1
  27   17   18 1
  28   17   21 2
  29   18   19 1
  30   19   20 2
  31   19   34 1
  32   20   21 1
  33   20   23 1
  34   23   24 1
  35   23   25 1
  36   23   26 1

#	End of record

