#	Name: ASD01230775
#	Creating user name:	WinNT
#	Creation time:	15. 06. 2019 19:15

#	Modifying user name:	WinNT
#	Modification time:	15. 06. 2019 19:15

#	Program:	/corina/corina34_cracker 3.40 0067  02.08.2006

@<TRIPOS>MOLECULE
ASD01230775
  30   32    0    0    0
SMALL
NO_CHARGES


@<TRIPOS>ATOM
   1 C1            -0.0166     1.3737     0.0096 C.2     
   2 C2             0.0021    -0.0041     0.0020 C.2     
   3 C3            -1.2145    -0.7001     0.0083 C.2     
   4 C4            -2.3849    -0.0393     0.0110 C.2     
   5 N5            -2.4623     1.3312     0.0018 N.pl3   
   6 C6            -1.3175     2.0758     0.0320 C.2     
   7 C7            -3.8099     1.9044    -0.0478 C.3     
   8 C8            -3.8779     3.1899     0.7817 C.3     
   9 S9            -2.6220     4.3261     0.1134 S.o2    
  10 N10           -1.2620     3.3847     0.0820 N.am    
  11 C11            1.2497     2.1410     0.0016 C.ar    
  12 C12            2.0219     2.2304     1.1612 C.ar    
  13 O13           -2.8875     4.6256    -1.2500 O.2     
  14 O14           -2.3209     5.3520     1.0495 O.2     
  15 C15            1.6783     2.7724    -1.1663 C.ar    
  16 C16            2.8586     3.4860    -1.1686 C.ar    
  17 C17            3.6194     3.5765    -0.0136 C.ar    
  18 C18            3.2018     2.9474     1.1478 C.ar    
  19 Cl19           1.4993     1.4424     2.6171 Cl      
  20 F20            4.7751     4.2760    -0.0220 F       
  21 H21            0.9399    -0.5395    -0.0090 H       
  22 H22           -1.2115    -1.7801     0.0107 H       
  23 H23           -3.3018    -0.6098     0.0204 H       
  24 H24           -4.0667     2.1303    -1.0827 H       
  25 H25           -4.5228     1.1819     0.3495 H       
  26 H26           -4.8680     3.6371     0.6933 H       
  27 H27           -3.6608     2.9695     1.8269 H       
  28 H28            1.0870     2.7022    -2.0673 H       
  29 H29            3.1909     3.9749    -2.0724 H       
  30 H30            3.7981     3.0212     2.0453 H       
@<TRIPOS>BOND
   1    1    2 2
   2    1   11 1
   3    1    6 1
   4    2    3 1
   5    2   21 1
   6    3    4 2
   7    3   22 1
   8    4    5 1
   9    4   23 1
  10    5    6 1
  11    5    7 1
  12    6   10 2
  13    7    8 1
  14    7   24 1
  15    7   25 1
  16    8    9 1
  17    8   26 1
  18    8   27 1
  19    9   10 am
  20    9   13 2
  21    9   14 2
  22   11   12 ar
  23   11   15 ar
  24   12   19 1
  25   12   18 ar
  26   15   16 ar
  27   15   28 1
  28   16   17 ar
  29   16   29 1
  30   17   18 ar
  31   17   20 1
  32   18   30 1

#	End of record

