#	Name: ASD04880865
#	Creating user name:	WinNT
#	Creation time:	15. 06. 2019 20:53

#	Modifying user name:	WinNT
#	Modification time:	15. 06. 2019 20:53

#	Program:	/corina/corina34_cracker 3.40 0067  02.08.2006

@<TRIPOS>MOLECULE
ASD04880865
  74   78    0    0    0
SMALL
NO_CHARGES


@<TRIPOS>ATOM
   1 N1             0.1713     1.3400     0.0815 N.3     
   2 C2             0.2488    -0.0526    -0.0317 C.ar    
   3 C3             0.0264    -0.8588     1.0881 C.ar    
   4 C4             0.1024    -2.2414     0.9772 C.ar    
   5 C5             0.3978    -2.8233    -0.2366 C.ar    
   6 C6             0.6212    -2.0236    -1.3600 C.ar    
   7 C7             0.5397    -0.6324    -1.2524 C.ar    
   8 C8             0.9380    -2.6471    -2.6597 C.2     
   9 O9             1.1324    -1.9502    -3.6369 O.2     
  10 N10            1.0119    -3.9888    -2.7633 N.am    
  11 N11           -0.2721    -0.2740     2.3194 N.am    
  12 C12           -1.2017     1.7684     0.3830 C.3     
  13 C13           -1.2287     3.2863     0.5771 C.3     
  14 N14           -0.7309     3.9421    -0.6402 N.3     
  15 C15            0.6422     3.5137    -0.9417 C.3     
  16 C16            0.6692     1.9958    -1.1358 C.3     
  17 C17           -0.8082     5.3321    -0.5272 C.ar    
  18 C18           -2.0471     5.9578    -0.4662 C.ar    
  19 C19           -2.1199     7.3321    -0.3541 C.ar    
  20 C20           -0.9613     8.0857    -0.3030 C.ar    
  21 C21            0.2733     7.4662    -0.3634 C.ar    
  22 C22            0.3534     6.0914    -0.4699 C.ar    
  23 C23           -1.1022    -0.8982     3.1783 C.2     
  24 C24           -1.3260    -0.3422     4.5163 C.2     
  25 O25           -1.6662    -1.9233     2.8431 O.2     
  26 O26           -0.7671     0.7815     5.0116 O.3     
  27 C27           -1.2018     0.9799     6.2628 C.2     
  28 C28           -2.0509    -0.0186     6.5917 C.2     
  29 C29           -2.1413    -0.8677     5.4777 C.2     
  30 C30            1.3264    -4.6076    -4.0535 C.3     
  31 C31            1.3484    -6.1295    -3.8973 C.3     
  32 C32            1.6768    -6.7758    -5.2446 C.3     
  33 N33            1.6979    -8.2329    -5.0950 N.am    
  34 C34            0.6271    -9.0281    -5.2622 C.2     
  35 C35            1.0085   -10.4720    -5.0207 C.3     
  36 C36            2.8923    -9.0127    -4.7495 C.3     
  37 C37            2.3627   -10.3876    -4.2791 C.3     
  38 C38           -3.3101     5.1376    -0.5229 C.3     
  39 O39           -0.4834    -8.6438    -5.5623 O.2     
  40 H40           -0.0699    -2.8618     1.8443 H       
  41 H41            0.4569    -3.8985    -0.3193 H       
  42 H42            0.7079    -0.0117    -2.1201 H       
  43 H43            0.8569    -4.5447    -1.9837 H       
  44 H44            0.1180     0.5817     2.5571 H       
  45 H45           -1.8576     1.4957    -0.4438 H       
  46 H46           -1.5433     1.2790     1.2951 H       
  47 H47           -2.2512     3.6098     0.7722 H       
  48 H48           -0.5941     3.5563     1.4211 H       
  49 H49            0.9837     4.0031    -1.8538 H       
  50 H50            1.2980     3.7864    -0.1149 H       
  51 H51            1.6916     1.6723    -1.3309 H       
  52 H52            0.0346     1.7258    -1.9798 H       
  53 H53           -3.0827     7.8192    -0.3066 H       
  54 H54           -1.0211     9.1606    -0.2160 H       
  55 H55            1.1761     8.0576    -0.3233 H       
  56 H56            1.3181     5.6077    -0.5126 H       
  57 H57           -0.9198     1.8023     6.9035 H       
  58 H58           -2.5662    -0.1386     7.5332 H       
  59 H59           -2.7384    -1.7640     5.3971 H       
  60 H60            0.5680    -4.3284    -4.7849 H       
  61 H61            2.3031    -4.2631    -4.3932 H       
  62 H62            2.1068    -6.4087    -3.1659 H       
  63 H63            0.3717    -6.4740    -3.5575 H       
  64 H64            0.9184    -6.4965    -5.9760 H       
  65 H65            2.6535    -6.4312    -5.5844 H       
  66 H66            0.2622   -10.9646    -4.3974 H       
  67 H67            1.1244   -10.9995    -5.9675 H       
  68 H68            3.5316    -9.1310    -5.6244 H       
  69 H69            3.4409    -8.5253    -3.9436 H       
  70 H70            2.2176   -10.4053    -3.1989 H       
  71 H71            3.0309   -11.1888    -4.5946 H       
  72 H72           -3.6474     4.9195     0.4904 H       
  73 H73           -4.0828     5.6964    -1.0507 H       
  74 H74           -3.1134     4.2036    -1.0493 H       
@<TRIPOS>BOND
   1    1    2 1
   2    1   12 1
   3    1   16 1
   4    2    3 ar
   5    2    7 ar
   6    3    4 ar
   7    3   11 1
   8    4    5 ar
   9    4   40 1
  10    5    6 ar
  11    5   41 1
  12    6    7 ar
  13    6    8 1
  14    7   42 1
  15    8    9 2
  16    8   10 am
  17   10   30 1
  18   10   43 1
  19   11   23 am
  20   11   44 1
  21   12   13 1
  22   12   45 1
  23   12   46 1
  24   13   14 1
  25   13   47 1
  26   13   48 1
  27   14   15 1
  28   14   17 1
  29   15   16 1
  30   15   49 1
  31   15   50 1
  32   16   51 1
  33   16   52 1
  34   17   18 ar
  35   17   22 ar
  36   18   19 ar
  37   18   38 1
  38   19   20 ar
  39   19   53 1
  40   20   21 ar
  41   20   54 1
  42   21   22 ar
  43   21   55 1
  44   22   56 1
  45   23   24 1
  46   23   25 2
  47   24   26 1
  48   24   29 2
  49   26   27 1
  50   27   28 2
  51   27   57 1
  52   28   29 1
  53   28   58 1
  54   29   59 1
  55   30   31 1
  56   30   60 1
  57   30   61 1
  58   31   32 1
  59   31   62 1
  60   31   63 1
  61   32   33 1
  62   32   64 1
  63   32   65 1
  64   33   34 am
  65   33   36 1
  66   34   35 1
  67   34   39 2
  68   35   37 1
  69   35   66 1
  70   35   67 1
  71   36   37 1
  72   36   68 1
  73   36   69 1
  74   37   70 1
  75   37   71 1
  76   38   72 1
  77   38   73 1
  78   38   74 1

#	End of record

