#	Name: ASD01410490
#	Creating user name:	WinNT
#	Creation time:	15. 06. 2019 19:17

#	Modifying user name:	WinNT
#	Modification time:	15. 06. 2019 19:17

#	Program:	/corina/corina34_cracker 3.40 0067  02.08.2006

@<TRIPOS>MOLECULE
ASD01410490
  74   77    0    0    0
SMALL
NO_CHARGES


@<TRIPOS>ATOM
   1 C1             0.4816     0.2280     2.8253 C.ar    
   2 C2             1.0601    -0.6129     3.7657 C.ar    
   3 C3             2.3962    -0.9413     3.6471 C.ar    
   4 N4             3.1239    -0.4663     2.6545 N.ar    
   5 C5             2.6085     0.3377     1.7389 C.ar    
   6 C6             1.2715     0.7098     1.7958 C.ar    
   7 O7             3.3933     0.8031     0.7349 O.3     
   8 C8             4.7153     0.4860     0.7588 C.ar    
   9 C9             5.1232    -0.8063     0.4507 C.ar    
  10 C10            6.4626    -1.1388     0.4719 C.ar    
  11 C11            7.4128    -0.1827     0.8022 C.ar    
  12 C12            7.0075     1.1239     1.1143 C.ar    
  13 C13            5.6499     1.4520     1.0841 C.ar    
  14 N14            8.7654    -0.5195     0.8244 N.am    
  15 C15            9.5015    -0.4268    -0.3009 C.2     
  16 C16            9.3868    -0.9741     2.0707 C.3     
  17 O17           10.6580    -0.7920    -0.3008 O.2     
  18 C18            8.8874     0.1305    -1.5592 C.3     
  19 C19            9.5448    -0.5190    -2.7785 C.3     
  20 C20            8.9213     0.0468    -4.0560 C.3     
  21 C21            9.1411     1.5602    -4.1038 C.3     
  22 C22            8.4837     2.2097    -2.8844 C.3     
  23 C23            9.1072     1.6439    -1.6069 C.3     
  24 C24            8.5176     2.1260    -5.3813 C.3     
  25 C25            9.2708    -2.4732     2.1723 C.ar    
  26 C26           10.2666    -3.2792     1.6522 C.ar    
  27 C27           10.1626    -4.6537     1.7440 C.ar    
  28 C28            9.0578    -5.2251     2.3586 C.ar    
  29 C29            8.0601    -4.4141     2.8796 C.ar    
  30 C30            8.1715    -3.0400     2.7903 C.ar    
  31 O31            8.9530    -6.5769     2.4498 O.3     
  32 C32            9.9538    -7.3515     1.7861 C.3     
  33 C33           11.1687    -7.5082     2.7029 C.3     
  34 C34            9.3888    -8.7325     1.4476 C.3     
  35 C35            0.6887     1.6258     0.7506 C.3     
  36 F36           -0.6645     1.8480     1.0275 F       
  37 F37            1.3740     2.8454     0.7650 F       
  38 F38            0.8156     1.0345    -0.5109 F       
  39 C39            8.0091     2.1462     1.4669 C.2     
  40 O40            9.1895     1.8584     1.4878 O.2     
  41 O41            7.6159     3.3999     1.7660 O.3     
  42 H42           -0.5623     0.4968     2.8927 H       
  43 H43            0.4718    -1.0059     4.5816 H       
  44 H44            2.8513    -1.5950     4.3765 H       
  45 H45            4.3881    -1.5546     0.1936 H       
  46 H46            6.7718    -2.1453     0.2313 H       
  47 H47            5.3303     2.4556     1.3230 H       
  48 H48           10.4391    -0.6898     2.0769 H       
  49 H49            8.8808    -0.5122     2.9185 H       
  50 H50            7.8183    -0.0818    -1.5666 H       
  51 H51           10.6139    -0.3067    -2.7711 H       
  52 H52            9.3882    -1.5972    -2.7445 H       
  53 H53            9.3897    -0.4159    -4.9247 H       
  54 H54            7.8522    -0.1655    -4.0634 H       
  55 H55           10.2102     1.7725    -4.0963 H       
  56 H56            8.6403     3.2879    -2.9184 H       
  57 H57            7.4146     1.9974    -2.8918 H       
  58 H58            8.6388     2.1066    -0.7382 H       
  59 H59           10.1763     1.8562    -1.5995 H       
  60 H60            7.4485     1.9137    -5.3887 H       
  61 H61            8.6742     3.2042    -5.4153 H       
  62 H62            8.9860     1.6633    -6.2499 H       
  63 H63           11.1262    -2.8340     1.1736 H       
  64 H64           10.9405    -5.2829     1.3374 H       
  65 H65            7.1991    -4.8565     3.3586 H       
  66 H66            7.3951    -2.4082     3.1957 H       
  67 H67           10.2542    -6.8468     0.8679 H       
  68 H68           11.5712    -6.5243     2.9440 H       
  69 H69           10.8683    -8.0128     3.6211 H       
  70 H70           11.9321    -8.0990     2.1966 H       
  71 H71            8.5233    -8.6208     0.7945 H       
  72 H72           10.1522    -9.3233     0.9414 H       
  73 H73            9.0884    -9.2371     2.3659 H       
  74 H74            8.3090     4.0355     1.9909 H       
@<TRIPOS>BOND
   1    1    2 ar
   2    1    6 ar
   3    1   42 1
   4    2    3 ar
   5    2   43 1
   6    3    4 ar
   7    3   44 1
   8    4    5 ar
   9    5    6 ar
  10    5    7 1
  11    6   35 1
  12    7    8 1
  13    8    9 ar
  14    8   13 ar
  15    9   10 ar
  16    9   45 1
  17   10   11 ar
  18   10   46 1
  19   11   12 ar
  20   11   14 1
  21   12   13 ar
  22   12   39 1
  23   13   47 1
  24   14   15 am
  25   14   16 1
  26   15   17 2
  27   15   18 1
  28   16   25 1
  29   16   48 1
  30   16   49 1
  31   18   19 1
  32   18   23 1
  33   18   50 1
  34   19   20 1
  35   19   51 1
  36   19   52 1
  37   20   21 1
  38   20   53 1
  39   20   54 1
  40   21   22 1
  41   21   24 1
  42   21   55 1
  43   22   23 1
  44   22   56 1
  45   22   57 1
  46   23   58 1
  47   23   59 1
  48   24   60 1
  49   24   61 1
  50   24   62 1
  51   25   26 ar
  52   25   30 ar
  53   26   27 ar
  54   26   63 1
  55   27   28 ar
  56   27   64 1
  57   28   29 ar
  58   28   31 1
  59   29   30 ar
  60   29   65 1
  61   30   66 1
  62   31   32 1
  63   32   33 1
  64   32   34 1
  65   32   67 1
  66   33   68 1
  67   33   69 1
  68   33   70 1
  69   34   71 1
  70   34   72 1
  71   34   73 1
  72   35   36 1
  73   35   37 1
  74   35   38 1
  75   39   40 2
  76   39   41 1
  77   41   74 1

#	End of record

