#	Name: ASD08820002
#	Creating user name:	WinNT
#	Creation time:	15. 06. 2019 21:19

#	Modifying user name:	WinNT
#	Modification time:	15. 06. 2019 21:19

#	Program:	/corina/corina34_cracker 3.40 0067  02.08.2006

@<TRIPOS>MOLECULE
ASD08820002
  35   37    0    0    0
SMALL
NO_CHARGES


@<TRIPOS>ATOM
   1 C1             0.8449     1.4030     2.3081 C.ar    
   2 N2             3.6734    -2.0564    -0.0418 N.pl3   
   3 O3             2.6047    -6.3836    -0.2197 O.2     
   4 C4             0.8686     0.0102     2.3151 C.ar    
   5 N5             2.6514    -2.8217    -0.1824 N.2     
   6 O6             7.0618    -3.9690     0.4012 O.2     
   7 C7             1.7680    -0.6790     1.5594 C.ar    
   8 N8             0.8111    -5.0925    -0.4439 N.am    
   9 C9             2.6852     0.0210     0.7608 C.ar    
  10 N10            5.2547    -5.2365     0.1527 N.am    
  11 C11            2.6617     1.4376     0.7525 C.ar    
  12 N12            7.3772    -6.1676     0.4313 N.am    
  13 C13            1.7197     2.1148     1.5455 C.ar    
  14 C14            3.5802     2.1400    -0.0467 C.ar    
  15 C15            4.4825     1.4580    -0.8043 C.ar    
  16 C16            4.5150     0.0663    -0.8043 C.ar    
  17 C17            3.6319    -0.6592    -0.0349 C.ar    
  18 C18            4.8020    -2.8031     0.1052 C.2     
  19 C19            4.4264    -4.1080     0.0482 C.2     
  20 C20            3.0204    -4.0884    -0.1453 C.2     
  21 C21            2.1370    -5.2623    -0.2714 C.2     
  22 C22            6.5819    -5.0841     0.3309 C.2     
  23 H23            0.1189     1.9258     2.9131 H       
  24 H24            0.1638    -0.5310     2.9289 H       
  25 H25            1.7755    -1.7588     1.5751 H       
  26 H26            0.2300    -5.8647    -0.5268 H       
  27 H27            0.4380    -4.1980    -0.4852 H       
  28 H28            4.8718    -6.1260     0.0967 H       
  29 H29            8.3324    -6.0579     0.5595 H       
  30 H30            6.9943    -7.0570     0.3752 H       
  31 H31            1.6896     3.1943     1.5497 H       
  32 H32            3.5699     3.2198    -0.0600 H       
  33 H33            5.1844     2.0056    -1.4157 H       
  34 H34            5.2406    -0.4507    -1.4147 H       
  35 H35            5.8060    -2.4292     0.2410 H       
@<TRIPOS>BOND
   1    1    4 ar
   2    1   13 ar
   3    1   23 1
   4    2    5 1
   5    2   17 1
   6    2   18 1
   7    3   21 2
   8    4    7 ar
   9    4   24 1
  10    5   20 2
  11    6   22 2
  12    7    9 ar
  13    7   25 1
  14    8   21 am
  15    8   26 1
  16    8   27 1
  17    9   11 ar
  18    9   17 ar
  19   10   19 1
  20   10   22 am
  21   10   28 1
  22   11   13 ar
  23   11   14 ar
  24   12   22 am
  25   12   29 1
  26   12   30 1
  27   13   31 1
  28   14   15 ar
  29   14   32 1
  30   15   16 ar
  31   15   33 1
  32   16   17 ar
  33   16   34 1
  34   18   19 2
  35   18   35 1
  36   19   20 1
  37   20   21 1

#	End of record

