#	Name: ASD02401009
#	Creating user name:	WinNT
#	Creation time:	15. 06. 2019 20:20

#	Modifying user name:	WinNT
#	Modification time:	15. 06. 2019 20:20

#	Program:	/corina/corina34_cracker 3.40 0067  02.08.2006

@<TRIPOS>MOLECULE
ASD02401009
  37   38    0    0    0
SMALL
NO_CHARGES


@<TRIPOS>ATOM
   1 C1            -0.2901     0.8238     0.9700 C.ar    
   2 C2             0.0074     0.0120    -0.1227 C.ar    
   3 C3            -0.9098    -0.1220    -1.1515 C.ar    
   4 C4            -2.1179     0.5488    -1.0932 C.ar    
   5 C5            -2.4136     1.3547    -0.0097 C.ar    
   6 C6            -1.5060     1.4890     1.0243 C.ar    
   7 C7            -3.7313     2.0838     0.0473 C.3     
   8 C8            -4.8597     1.0920    -0.0715 C.ar    
   9 C9            -4.9539     0.0442     0.8252 C.ar    
  10 C10           -5.9873    -0.8691     0.7212 C.ar    
  11 C11           -6.9314    -0.7357    -0.2831 C.ar    
  12 C12           -6.8372     0.3202    -1.1874 C.ar    
  13 C13           -5.8013     1.2356    -1.0735 C.ar    
  14 O14            1.1960    -0.6468    -0.1790 O.3     
  15 O15           -7.9479    -1.6334    -0.3868 O.3     
  16 N16           -7.7885     0.4601    -2.2045 N.pl3   
  17 N17            0.6332     0.9630     2.0127 N.pl3   
  18 C18           -3.8449     2.8285     1.3790 C.3     
  19 F19           -2.7973     3.7492     1.4892 F       
  20 F20           -5.0681     3.5054     1.4319 F       
  21 F21           -3.7731     1.9120     2.4334 F       
  22 C22           -3.8098     3.0862    -1.1059 C.3     
  23 F23           -3.7060     2.4053    -2.3236 F       
  24 F24           -5.0331     3.7630    -1.0530 F       
  25 F25           -2.7623     4.0069    -0.9957 F       
  26 H26           -0.6816    -0.7503    -1.9998 H       
  27 H27           -2.8319     0.4430    -1.8965 H       
  28 H28           -1.7397     2.1190     1.8699 H       
  29 H29           -4.2184    -0.0617     1.6089 H       
  30 H30           -6.0578    -1.6868     1.4232 H       
  31 H31           -5.7255     2.0554    -1.7725 H       
  32 H32            1.1765    -1.5279     0.2189 H       
  33 H33           -8.7380    -1.3927     0.1161 H       
  34 H34           -8.5146    -0.1785    -2.2805 H       
  35 H35           -7.7217     1.1956    -2.8333 H       
  36 H36            1.4815     0.4941     1.9752 H       
  37 H37            0.4248     1.5285     2.7728 H       
@<TRIPOS>BOND
   1    1    2 ar
   2    1   17 1
   3    1    6 ar
   4    2    3 ar
   5    2   14 1
   6    3    4 ar
   7    3   26 1
   8    4    5 ar
   9    4   27 1
  10    5    6 ar
  11    5    7 1
  12    6   28 1
  13    7    8 1
  14    7   18 1
  15    7   22 1
  16    8    9 ar
  17    8   13 ar
  18    9   10 ar
  19    9   29 1
  20   10   11 ar
  21   10   30 1
  22   11   12 ar
  23   11   15 1
  24   12   13 ar
  25   12   16 1
  26   13   31 1
  27   14   32 1
  28   15   33 1
  29   16   34 1
  30   16   35 1
  31   17   36 1
  32   17   37 1
  33   18   19 1
  34   18   20 1
  35   18   21 1
  36   22   23 1
  37   22   24 1
  38   22   25 1

#	End of record

