#	Name: ASD03330590
#	Creating user name:	WinNT
#	Creation time:	15. 06. 2019 20:37

#	Modifying user name:	WinNT
#	Modification time:	15. 06. 2019 20:37

#	Program:	/corina/corina34_cracker 3.40 0067  02.08.2006

@<TRIPOS>MOLECULE
ASD03330590
  66   69    0    0    0
SMALL
NO_CHARGES


@<TRIPOS>ATOM
   1 C1             0.0697     1.8299    -1.0151 C.2     
   2 N2             0.0327     0.5291    -1.3883 N.pl3   
   3 C3             1.3364     2.0893    -0.5858 C.2     
   4 N4             2.0565     0.9543    -0.7183 N.2     
   5 C5             1.2825     0.0128    -1.2053 C.2     
   6 C6             1.6956    -1.3753    -1.5051 C.ar    
   7 C7             1.8323     3.3777    -0.0702 C.2     
   8 O8             1.0832     4.3332     0.0008 O.2     
   9 C9             3.6089     4.7779     0.8355 C.3     
  10 N10            3.1159     3.4972     0.3229 N.am    
  11 C11            3.2951     4.8842     2.3292 C.3     
  12 C12            3.8908     3.6807     3.0624 C.3     
  13 C13            3.9020     6.1730     2.8874 C.3     
  14 C14            1.7787     4.9052     2.5315 C.3     
  15 C15            5.0992     4.8620     0.6281 C.2     
  16 N16            5.7131     6.0618     0.6293 N.am    
  17 O17            5.7460     3.8499     0.4600 O.2     
  18 C18            7.1418     6.1538     0.3185 C.3     
  19 C19           -1.1506    -0.1803    -1.8826 C.3     
  20 C20           -1.8411     0.6755    -2.9491 C.3     
  21 C21           -2.8307     1.6273    -2.2844 C.3     
  22 N22           -2.3450     2.0574    -0.9715 N.3     
  23 C23           -1.0812     2.7999    -1.0868 C.3     
  24 C24           -3.3608     2.8530    -0.2692 C.3     
  25 C25            1.1731    -3.7180    -1.6871 C.ar    
  26 C26            2.5124    -3.9726    -2.0768 C.ar    
  27 C27            3.4258    -2.9064    -2.1677 C.ar    
  28 C28            3.0222    -1.6410    -1.8874 C.ar    
  29 C29            0.7746    -2.4032    -1.4017 C.ar    
  30 C30            0.2653    -4.7885    -1.5977 C.ar    
  31 C31            0.6828    -6.0514    -1.8856 C.ar    
  32 C32            1.9994    -6.3014    -2.2683 C.ar    
  33 C33            2.9054    -5.2901    -2.3660 C.ar    
  34 H34            3.1213     5.5944     0.3028 H       
  35 H35            3.7134     2.7351     0.2663 H       
  36 H36            4.9711     3.6657     2.9182 H       
  37 H37            3.6672     3.7564     4.1265 H       
  38 H38            3.4584     2.7625     2.6647 H       
  39 H39            3.4970     7.0289     2.3474 H       
  40 H40            3.6563     6.2617     3.9456 H       
  41 H41            4.9849     6.1466     2.7668 H       
  42 H42            1.3463     3.9871     2.1338 H       
  43 H43            1.5551     4.9809     3.5957 H       
  44 H44            1.3542     5.7626     2.0092 H       
  45 H45            5.2090     6.8643     0.8359 H       
  46 H46            7.3210     5.7673    -0.6848 H       
  47 H47            7.4581     7.1957     0.3684 H       
  48 H48            7.7093     5.5669     1.0407 H       
  49 H49           -0.8487    -1.1324    -2.3190 H       
  50 H50           -1.8394    -0.3592    -1.0570 H       
  51 H51           -1.0922     1.2521    -3.4919 H       
  52 H52           -2.3733     0.0274    -3.6453 H       
  53 H53           -2.9673     2.5024    -2.9198 H       
  54 H54           -3.7883     1.1209    -2.1635 H       
  55 H55           -1.0043     3.5174    -0.2699 H       
  56 H56           -1.0542     3.3275    -2.0402 H       
  57 H57           -4.2600     2.2528    -0.1299 H       
  58 H58           -2.9742     3.1594     0.7028 H       
  59 H59           -3.6020     3.7370    -0.8594 H       
  60 H60            4.4473    -3.0943    -2.4637 H       
  61 H61            3.7293    -0.8278    -1.9592 H       
  62 H62           -0.2423    -2.1951    -1.1034 H       
  63 H63           -0.7578    -4.6094    -1.3018 H       
  64 H64           -0.0162    -6.8718    -1.8163 H       
  65 H65            2.3054    -7.3129    -2.4910 H       
  66 H66            3.9222    -5.4999    -2.6634 H       
@<TRIPOS>BOND
   1    1    2 1
   2    1    3 2
   3    1   23 1
   4    2   19 1
   5    2    5 1
   6    3    4 1
   7    3    7 1
   8    4    5 2
   9    5    6 1
  10    6   29 ar
  11    6   28 ar
  12    7    8 2
  13    7   10 am
  14    9   10 1
  15    9   11 1
  16    9   15 1
  17    9   34 1
  18   10   35 1
  19   11   12 1
  20   11   13 1
  21   11   14 1
  22   12   36 1
  23   12   37 1
  24   12   38 1
  25   13   39 1
  26   13   40 1
  27   13   41 1
  28   14   42 1
  29   14   43 1
  30   14   44 1
  31   15   16 am
  32   15   17 2
  33   16   18 1
  34   16   45 1
  35   18   46 1
  36   18   47 1
  37   18   48 1
  38   19   20 1
  39   19   49 1
  40   19   50 1
  41   20   21 1
  42   20   51 1
  43   20   52 1
  44   21   22 1
  45   21   53 1
  46   21   54 1
  47   22   23 1
  48   22   24 1
  49   23   55 1
  50   23   56 1
  51   24   57 1
  52   24   58 1
  53   24   59 1
  54   25   26 ar
  55   25   30 ar
  56   25   29 ar
  57   26   27 ar
  58   26   33 ar
  59   27   28 ar
  60   27   60 1
  61   28   61 1
  62   29   62 1
  63   30   31 ar
  64   30   63 1
  65   31   32 ar
  66   31   64 1
  67   32   33 ar
  68   32   65 1
  69   33   66 1

#	End of record

