#	Name: ASD01883761
#	Creating user name:	WinNT
#	Creation time:	15. 06. 2019 19:47

#	Modifying user name:	WinNT
#	Modification time:	15. 06. 2019 19:47

#	Program:	/corina/corina34_cracker 3.40 0067  02.08.2006

@<TRIPOS>MOLECULE
ASD01883761
  53   57    0    0    0
SMALL
NO_CHARGES


@<TRIPOS>ATOM
   1 C1            -0.0169     1.3978     0.0097 C.2     
   2 C2             0.0021    -0.0041     0.0020 C.2     
   3 C3            -1.2218    -0.7047     0.0099 C.2     
   4 C4            -2.3968    -0.0477     0.0246 C.2     
   5 N5            -2.4615     1.3153     0.0325 N.pl3   
   6 C6            -1.3172     2.0713     0.0319 C.2     
   7 C7            -3.5156     2.1914     0.0468 C.2     
   8 C8            -2.9977     3.4378     0.0483 C.2     
   9 N9            -1.6638     3.3458     0.0401 N.2     
  10 C10           -4.9787     1.8304     0.0579 C.3     
  11 C11            1.2864    -0.7371    -0.0146 C.ar    
  12 C12            1.6481    -1.5295     1.0695 C.ar    
  13 C13            2.8612    -2.2151     1.0411 C.ar    
  14 C14            3.7078    -2.1018    -0.0784 C.ar    
  15 C15            3.3254    -1.3024    -1.1533 C.ar    
  16 C16            2.1351    -0.6372    -1.1252 C.ar    
  17 C17           -5.5167     1.8383    -1.3743 C.3     
  18 F18           -4.8121     0.9052    -2.1424 F       
  19 F19           -6.8750     1.5033    -1.3641 F       
  20 F20           -5.3552     3.1137    -1.9262 F       
  21 C21            1.2014     2.1503     0.0021 C.1     
  22 N22            2.1679     2.7472    -0.0039 N.1     
  23 C23            3.5441    -3.1134     1.9762 C.2     
  24 C24            4.7016    -3.4722     1.3995 C.2     
  25 N25            4.8160    -2.8776     0.1723 N.pl3   
  26 C26            5.9505    -3.0430    -0.7397 C.3     
  27 C27            7.2304    -2.5598    -0.0546 C.3     
  28 C28            8.4152    -2.7326    -1.0071 C.3     
  29 C29            8.5611    -4.2101    -1.3768 C.3     
  30 C30            7.2813    -4.6933    -2.0619 C.3     
  31 C31            6.0965    -4.5205    -1.1094 C.3     
  32 O32            9.6677    -4.3714    -2.2664 O.3     
  33 H33           -1.2165    -1.7847     0.0037 H       
  34 H34           -3.3152    -0.6160     0.0299 H       
  35 H35           -3.5659     4.3562     0.0583 H       
  36 H36           -5.1045     0.8368     0.4878 H       
  37 H37           -5.5277     2.5575     0.6563 H       
  38 H38            0.9951    -1.6126     1.9257 H       
  39 H39            3.9719    -1.2124    -2.0137 H       
  40 H40            1.8478    -0.0200    -1.9636 H       
  41 H41            3.1845    -3.4266     2.9452 H       
  42 H42            5.4345    -4.1326     1.8390 H       
  43 H43            5.7788    -2.4577    -1.6431 H       
  44 H44            7.1264    -1.5073     0.2087 H       
  45 H45            7.4021    -3.1451     0.8488 H       
  46 H46            8.2434    -2.1473    -1.9105 H       
  47 H47            9.3270    -2.3884    -0.5190 H       
  48 H48            8.7329    -4.7954    -0.4734 H       
  49 H49            7.1096    -4.1080    -2.9653 H       
  50 H50            7.3853    -5.7459    -2.3252 H       
  51 H51            6.2682    -5.1058    -0.2060 H       
  52 H52            5.1847    -4.8647    -1.5975 H       
  53 H53            9.8198    -5.2854    -2.5432 H       
@<TRIPOS>BOND
   1    1    2 2
   2    1   21 1
   3    1    6 1
   4    2    3 1
   5    2   11 1
   6    3    4 2
   7    3   33 1
   8    4    5 1
   9    4   34 1
  10    5    6 1
  11    5    7 1
  12    6    9 2
  13    7    8 2
  14    7   10 1
  15    8    9 1
  16    8   35 1
  17   10   17 1
  18   10   36 1
  19   10   37 1
  20   11   12 ar
  21   11   16 ar
  22   12   13 ar
  23   12   38 1
  24   13   14 ar
  25   13   23 1
  26   14   15 ar
  27   14   25 1
  28   15   16 ar
  29   15   39 1
  30   16   40 1
  31   17   18 1
  32   17   19 1
  33   17   20 1
  34   21   22 3
  35   23   24 2
  36   23   41 1
  37   24   25 1
  38   24   42 1
  39   25   26 1
  40   26   27 1
  41   26   31 1
  42   26   43 1
  43   27   28 1
  44   27   44 1
  45   27   45 1
  46   28   29 1
  47   28   46 1
  48   28   47 1
  49   29   30 1
  50   29   32 1
  51   29   48 1
  52   30   31 1
  53   30   49 1
  54   30   50 1
  55   31   51 1
  56   31   52 1
  57   32   53 1

#	End of record

