#	Name: ASD09310003
#	Creating user name:	WinNT
#	Creation time:	15. 06. 2019 21:21

#	Modifying user name:	WinNT
#	Modification time:	15. 06. 2019 21:21

#	Program:	/corina/corina34_cracker 3.40 0067  02.08.2006

@<TRIPOS>MOLECULE
ASD09310003
  55   60    0    0    0
SMALL
NO_CHARGES


@<TRIPOS>ATOM
   1 C1             1.9783     0.2219     0.5316 C.3     
   2 C2             1.9332    -1.1882     1.1227 C.3     
   3 C3             1.1607    -1.0318     2.4401 C.3     
   4 C4             0.2355     0.1798     2.2741 C.3     
   5 C5             0.8279     1.0195     1.1471 C.3     
   6 C6             3.2454     0.8316     1.1438 C.3     
   7 O7             3.3260    -1.4593     1.4503 O.3     
   8 C8             3.8687    -0.3156     1.8979 C.2     
   9 O9             4.7127    -0.2218     2.7574 O.2     
  10 C10            2.1264     0.3110    -0.9866 C.3     
  11 C11            3.6094     0.5687    -1.2504 C.3     
  12 C12            4.1121     1.3236    -0.0180 C.3     
  13 O13            4.3561    -0.6608    -1.3172 O.3     
  14 C14            5.2887    -0.7096    -0.3569 C.2     
  15 C15            5.5123     0.7036     0.1308 C.3     
  16 O16            5.8490    -1.7016     0.0455 O.2     
  17 O17            4.1086     2.7445    -0.1695 O.3     
  18 O18            2.8218     1.8555     2.0489 O.3     
  19 C19            1.5254     2.3026     1.6307 C.3     
  20 O20            1.6384     3.0283     0.3719 O.3     
  21 C21            0.4661     2.9005    -0.2775 C.2     
  22 C22           -0.1630     1.5895     0.1332 C.3     
  23 O23           -0.0027     3.6975    -1.0552 O.2     
  24 O24           -1.4356     1.8118     0.7440 O.3     
  25 C25            0.1964     0.9924     3.5699 C.3     
  26 O26            1.3411     1.3912    -1.4951 O.3     
  27 O27            0.3868    -2.2058     2.6947 O.3     
  28 C28            1.6206     1.3823     3.9705 C.3     
  29 C29           -0.6369     2.2572     3.3538 C.3     
  30 C30            6.5275     1.4312    -0.7529 C.3     
  31 C31           -0.4335     0.1503     4.6812 C.3     
  32 H32            1.4891    -1.9230     0.4511 H       
  33 H33            1.8561    -0.8590     3.2614 H       
  34 H34           -0.7686    -0.1498     2.0072 H       
  35 H35            1.8202    -0.6272    -1.4494 H       
  36 H36            3.7515     1.1552    -2.1582 H       
  37 H37            5.8308     0.7090     1.1732 H       
  38 H38            4.6743     3.0652    -0.8853 H       
  39 H39            0.9781     2.8341     2.4093 H       
  40 H40           -0.2587     0.9245    -0.7252 H       
  41 H41           -2.0819     2.2359     0.1631 H       
  42 H42            1.3942     1.4984    -2.4547 H       
  43 H43            0.9138    -3.0105     2.7936 H       
  44 H44            1.8489     2.3745     3.5811 H       
  45 H45            1.7029     1.3908     5.0574 H       
  46 H46            2.3248     0.6595     3.5584 H       
  47 H47           -1.6912     2.0288     3.5103 H       
  48 H48           -0.3225     3.0247     4.0610 H       
  49 H49           -0.4908     2.6191     2.3361 H       
  50 H50            6.1688     1.4457    -1.7821 H       
  51 H51            6.6519     2.4539    -0.3970 H       
  52 H52            7.4851     0.9122    -0.7091 H       
  53 H53            0.1602    -0.7508     4.8351 H       
  54 H54           -0.4613     0.7292     5.6043 H       
  55 H55           -1.4481    -0.1275     4.3958 H       
@<TRIPOS>BOND
   1    1    2 1
   2    1    6 1
   3    1    5 1
   4    1   10 1
   5    2    3 1
   6    2    7 1
   7    2   32 1
   8    3   27 1
   9    3    4 1
  10    3   33 1
  11    4    5 1
  12    4   25 1
  13    4   34 1
  14    5   19 1
  15    5   22 1
  16    6    8 1
  17    6   18 1
  18    6   12 1
  19    7    8 1
  20    8    9 2
  21   10   11 1
  22   10   26 1
  23   10   35 1
  24   11   12 1
  25   11   13 1
  26   11   36 1
  27   12   17 1
  28   12   15 1
  29   13   14 1
  30   14   15 1
  31   14   16 2
  32   15   30 1
  33   15   37 1
  34   17   38 1
  35   18   19 1
  36   19   20 1
  37   19   39 1
  38   20   21 1
  39   21   22 1
  40   21   23 2
  41   22   24 1
  42   22   40 1
  43   24   41 1
  44   25   28 1
  45   25   29 1
  46   25   31 1
  47   26   42 1
  48   27   43 1
  49   28   44 1
  50   28   45 1
  51   28   46 1
  52   29   47 1
  53   29   48 1
  54   29   49 1
  55   30   50 1
  56   30   51 1
  57   30   52 1
  58   31   53 1
  59   31   54 1
  60   31   55 1

#	End of record

