#	Name: ASD03330486
#	Creating user name:	WinNT
#	Creation time:	15. 06. 2019 20:37

#	Modifying user name:	WinNT
#	Modification time:	15. 06. 2019 20:37

#	Program:	/corina/corina34_cracker 3.40 0067  02.08.2006

@<TRIPOS>MOLECULE
ASD03330486
  60   62    0    0    0
SMALL
NO_CHARGES


@<TRIPOS>ATOM
   1 C1            -0.4529     0.3450     0.6772 C.3     
   2 N2            -0.4171    -1.1085     0.4630 N.3     
   3 C3             0.1650    -1.4397    -0.8502 C.3     
   4 C4             1.4640    -0.6879    -0.9859 C.2     
   5 N5             1.8183     0.3589    -0.1861 N.pl3   
   6 C6             0.9709     0.8743     0.8927 C.3     
   7 C7             2.4774    -0.8808    -1.8668 C.2     
   8 N8             3.4345     0.0365    -1.6007 N.2     
   9 C9             3.0451     0.7848    -0.5905 C.2     
  10 C10            3.8087     1.8962     0.0019 C.2     
  11 C11            2.5269    -1.9067    -2.9237 C.2     
  12 O12            1.5987    -2.6799    -3.0645 O.2     
  13 C13            3.6497    -3.0078    -4.7848 C.3     
  14 N14            3.6006    -1.9880    -3.7342 N.am    
  15 C15           -1.7560    -1.6951     0.6084 C.3     
  16 C16            2.9308    -2.4900    -6.0322 C.3     
  17 C17            3.6019    -1.2005    -6.5093 C.3     
  18 C18            3.0063    -3.5439    -7.1388 C.3     
  19 C19            1.4651    -2.2078    -5.6958 C.3     
  20 C20            5.0865    -3.3118    -5.1230 C.2     
  21 O21            5.9531    -2.5014    -4.8719 O.2     
  22 N22            5.4083    -4.4843    -5.7045 N.am    
  23 C23            6.8136    -4.8214    -5.9448 C.3     
  24 C24            4.9365     2.2648    -0.5714 C.2     
  25 C25            5.7950     3.3797    -0.0465 C.3     
  26 N26            5.0275     4.2172     0.8838 N.3     
  27 C27            4.3782     3.3805     1.9064 C.3     
  28 C28            3.2671     2.5684     1.2326 C.3     
  29 H29           -0.8912     0.8291    -0.1955 H       
  30 H30           -1.0588     0.5669     1.5557 H       
  31 H31            0.3517    -2.5119    -0.9107 H       
  32 H32           -0.5195    -1.1388    -1.6432 H       
  33 H33            0.9658     1.9640     0.8678 H       
  34 H34            1.3498     0.5296     1.8548 H       
  35 H35            3.1593    -3.9155    -4.4333 H       
  36 H36            4.3408    -1.3713    -3.6219 H       
  37 H37           -2.4455    -1.2011    -0.0762 H       
  38 H38           -1.7136    -2.7593     0.3762 H       
  39 H39           -2.1024    -1.5604     1.6331 H       
  40 H40            4.6461    -1.4016    -6.7490 H       
  41 H41            3.0897    -0.8317    -7.3980 H       
  42 H42            3.5481    -0.4497    -5.7210 H       
  43 H43            2.4389    -4.4254    -6.8403 H       
  44 H44            2.5867    -3.1359    -8.0583 H       
  45 H45            4.0471    -3.8212    -7.3060 H       
  46 H46            1.4113    -1.4570    -4.9075 H       
  47 H47            0.9529    -1.8389    -6.5845 H       
  48 H48            0.9870    -3.1265    -5.3559 H       
  49 H49            4.7095    -5.1050    -5.9639 H       
  50 H50            6.8764    -5.8008    -6.4190 H       
  51 H51            7.2604    -4.0720    -6.5982 H       
  52 H52            7.3497    -4.8421    -4.9959 H       
  53 H53            5.2585     1.7409    -1.4592 H       
  54 H54            6.6558     2.9586     0.4729 H       
  55 H55            6.1424     3.9907    -0.8797 H       
  56 H56            5.6160     4.9173     1.3098 H       
  57 H57            5.1123     2.7069     2.3484 H       
  58 H58            3.9478     4.0162     2.6802 H       
  59 H59            2.4473     3.2327     0.9590 H       
  60 H60            2.9023     1.8093     1.9245 H       
@<TRIPOS>BOND
   1    1    2 1
   2    1    6 1
   3    1   29 1
   4    1   30 1
   5    2    3 1
   6    2   15 1
   7    3    4 1
   8    3   31 1
   9    3   32 1
  10    4    5 1
  11    4    7 2
  12    5    6 1
  13    5    9 1
  14    6   33 1
  15    6   34 1
  16    7    8 1
  17    7   11 1
  18    8    9 2
  19    9   10 1
  20   10   24 2
  21   10   28 1
  22   11   12 2
  23   11   14 am
  24   13   14 1
  25   13   16 1
  26   13   20 1
  27   13   35 1
  28   14   36 1
  29   15   37 1
  30   15   38 1
  31   15   39 1
  32   16   17 1
  33   16   18 1
  34   16   19 1
  35   17   40 1
  36   17   41 1
  37   17   42 1
  38   18   43 1
  39   18   44 1
  40   18   45 1
  41   19   46 1
  42   19   47 1
  43   19   48 1
  44   20   21 2
  45   20   22 am
  46   22   23 1
  47   22   49 1
  48   23   50 1
  49   23   51 1
  50   23   52 1
  51   24   25 1
  52   24   53 1
  53   25   26 1
  54   25   54 1
  55   25   55 1
  56   26   27 1
  57   26   56 1
  58   27   28 1
  59   27   57 1
  60   27   58 1
  61   28   59 1
  62   28   60 1

#	End of record

