#	Name: ASD07930762
#	Creating user name:	WinNT
#	Creation time:	15. 06. 2019 21:13

#	Modifying user name:	WinNT
#	Modification time:	15. 06. 2019 21:13

#	Program:	/corina/corina34_cracker 3.40 0067  02.08.2006

@<TRIPOS>MOLECULE
ASD07930762
  43   46    0    0    0
SMALL
NO_CHARGES


@<TRIPOS>ATOM
   1 C1            -0.0178     1.4608     0.0101 C.3     
   2 N2             0.8031    -0.4153    -2.1619 N.2     
   3 N3            -0.8796    -1.7833    -1.2911 N.pl3   
   4 C4            -0.9005    -2.8248    -0.2586 C.3     
   5 C5            -1.2102    -2.1834     1.1010 C.3     
   6 S6             0.0275    -0.8859     1.4156 S.o2    
   7 N7             0.0021    -0.0041     0.0020 N.am    
   8 C8             0.0002    -0.7257    -1.1832 C.2     
   9 C9             0.4646    -3.5132    -0.1997 C.3     
  10 O10           -0.4323     0.0192     2.4099 O.2     
  11 O11            1.3354    -1.4387     1.4687 O.2     
  12 C12           -1.9634    -3.8404    -0.5898 C.2     
  13 C13           -1.9977    -4.5832    -1.7013 C.2     
  14 S14           -3.3408    -4.2321     0.4309 S.3     
  15 C15           -3.9136    -5.4125    -0.7406 C.2     
  16 C16           -3.0672    -5.4491    -1.7928 C.2     
  17 Cl17          -0.7854    -4.4656    -2.9384 Cl      
  18 C18           -5.1246    -6.2368    -0.5944 C.2     
  19 N19           -5.5726    -7.1606    -1.5115 N.pl3   
  20 C20           -6.7331    -7.7484    -1.0522 C.ar    
  21 C21           -7.0297    -7.1767     0.1990 C.ar    
  22 C22           -5.9700    -6.2077     0.4699 C.2     
  23 C23           -7.5800    -8.7227    -1.5744 C.ar    
  24 C24           -8.6953    -9.1147    -0.8622 C.ar    
  25 C25           -8.9831    -8.5468     0.3715 C.ar    
  26 C26           -8.1658    -7.5902     0.9030 C.ar    
  27 F27           -7.3110    -9.2820    -2.7744 F       
  28 H28            1.0048     1.8381     0.0023 H       
  29 H29           -0.5450     1.8219    -0.8730 H       
  30 H30           -0.5280     1.8123     0.9069 H       
  31 H31            0.7883    -0.9307    -2.9835 H       
  32 H32           -1.4804    -1.8399    -2.0505 H       
  33 H33           -2.2071    -1.7432     1.0811 H       
  34 H34           -1.1573    -2.9394     1.8845 H       
  35 H35            1.2322    -2.7780     0.0418 H       
  36 H36            0.4485    -4.2871     0.5677 H       
  37 H37            0.6857    -3.9650    -1.1667 H       
  38 H38           -3.2171    -6.1032    -2.6390 H       
  39 H39           -5.1380    -7.3669    -2.3538 H       
  40 H40           -5.8788    -5.5831     1.3462 H       
  41 H41           -9.3509    -9.8705    -1.2689 H       
  42 H42           -9.8603    -8.8643     0.9156 H       
  43 H43           -8.3967    -7.1533     1.8633 H       
@<TRIPOS>BOND
   1    1    7 1
   2    1   28 1
   3    1   29 1
   4    1   30 1
   5    2    8 2
   6    2   31 1
   7    3    4 1
   8    3    8 1
   9    3   32 1
  10    4    5 1
  11    4    9 1
  12    4   12 1
  13    5    6 1
  14    5   33 1
  15    5   34 1
  16    6    7 am
  17    6   10 2
  18    6   11 2
  19    7    8 1
  20    9   35 1
  21    9   36 1
  22    9   37 1
  23   12   14 1
  24   12   13 2
  25   13   17 1
  26   13   16 1
  27   14   15 1
  28   15   16 2
  29   15   18 1
  30   16   38 1
  31   18   19 1
  32   18   22 2
  33   19   20 1
  34   19   39 1
  35   20   21 ar
  36   20   23 ar
  37   21   22 1
  38   21   26 ar
  39   22   40 1
  40   23   24 ar
  41   23   27 1
  42   24   25 ar
  43   24   41 1
  44   25   26 ar
  45   25   42 1
  46   26   43 1

#	End of record

