#	Name: ASD01820119
#	Creating user name:	WinNT
#	Creation time:	15. 06. 2019 19:36

#	Modifying user name:	WinNT
#	Modification time:	15. 06. 2019 19:36

#	Program:	/corina/corina34_cracker 3.40 0067  02.08.2006

@<TRIPOS>MOLECULE
ASD01820119
  55   58    0    0    0
SMALL
NO_CHARGES


@<TRIPOS>ATOM
   1 C1             0.0044     1.5394     0.0144 C.3     
   2 C2             0.0125     0.0096    -0.0092 C.3     
   3 C3             0.7159    -0.4772    -1.2777 C.3     
   4 N4             2.1262    -0.0827    -1.2360 N.am    
   5 C5             2.4958     1.1432    -1.6567 C.2     
   6 O6             1.6762     1.8845    -2.1650 O.2     
   7 C7             3.8908     1.5849    -1.5011 C.2     
   8 C8             4.3078     2.7889    -2.0260 C.2     
   9 N9             5.5725     3.2245    -1.9031 N.pl3   
  10 C10            5.9126     4.4577    -2.4651 C.ar    
  11 N11            5.7083     5.5694    -1.7779 N.ar    
  12 C12            6.0150     6.7544    -2.2697 C.ar    
  13 C13            6.5654     6.8776    -3.5328 C.ar    
  14 F14            6.8756     8.0963    -4.0265 F       
  15 C15            6.7963     5.7341    -4.2881 C.ar    
  16 C16            6.4685     4.5041    -3.7406 C.ar    
  17 F17            6.6803     3.3661    -4.4372 F       
  18 C18            6.5486     2.5077    -1.2463 C.ar    
  19 N19            7.7832     2.9853    -1.1532 N.ar    
  20 C20            8.7379     2.3173    -0.5279 C.ar    
  21 C21            8.4920     1.0779     0.0633 C.ar    
  22 C22            7.2348     0.5390    -0.0034 C.ar    
  23 C23            6.2400     1.2630    -0.6693 C.ar    
  24 C24            4.8645     0.7510    -0.7764 C.2     
  25 O25            4.5456    -0.3197    -0.2891 O.2     
  26 N26           10.0144     2.8617    -0.4587 N.am    
  27 C27           10.3751     4.2379    -0.8308 C.3     
  28 C28           11.8912     4.3072    -0.5636 C.3     
  29 N29           12.2237     2.9628    -0.0693 N.am    
  30 C30           11.1108     2.2181    -0.0369 C.2     
  31 O31           11.0977     1.0616     0.3376 O.2     
  32 C32            0.6150    -2.0014    -1.3639 C.3     
  33 F33            1.2263    -2.5734    -0.2430 F       
  34 F34           -0.7317    -2.3781    -1.4037 F       
  35 C35            1.3185    -2.4882    -2.6324 C.3     
  36 F36            2.6652    -2.1115    -2.5926 F       
  37 F37            1.2262    -3.8819    -2.7112 F       
  38 F38            0.7072    -1.9162    -3.7533 F       
  39 H39            1.0300     1.9083     0.0034 H       
  40 H40           -0.5258     1.9134    -0.8614 H       
  41 H41           -0.4968     1.8861     0.9182 H       
  42 H42            0.5427    -0.3645     0.8666 H       
  43 H43           -1.0131    -0.3594     0.0019 H       
  44 H44            0.2397    -0.0316    -2.1510 H       
  45 H45            2.7940    -0.7039    -0.9056 H       
  46 H46            3.5936     3.4031    -2.5544 H       
  47 H47            5.8335     7.6399    -1.6786 H       
  48 H48            7.2250     5.8022    -5.2770 H       
  49 H49            9.2859     0.5481     0.5687 H       
  50 H50            7.0172    -0.4186     0.4460 H       
  51 H51           10.1638     4.4170    -1.8850 H       
  52 H52            9.8432     4.9551    -0.2058 H       
  53 H53           12.4327     4.5208    -1.4852 H       
  54 H54           12.1122     5.0590     0.1941 H       
  55 H55           13.1078     2.6640     0.1952 H       
@<TRIPOS>BOND
   1    1    2 1
   2    1   39 1
   3    1   40 1
   4    1   41 1
   5    2    3 1
   6    2   42 1
   7    2   43 1
   8    3    4 1
   9    3   32 1
  10    3   44 1
  11    4    5 am
  12    4   45 1
  13    5    6 2
  14    5    7 1
  15    7   24 1
  16    7    8 2
  17    8    9 1
  18    8   46 1
  19    9   10 1
  20    9   18 1
  21   10   16 ar
  22   10   11 ar
  23   11   12 ar
  24   12   13 ar
  25   12   47 1
  26   13   14 1
  27   13   15 ar
  28   15   16 ar
  29   15   48 1
  30   16   17 1
  31   18   23 ar
  32   18   19 ar
  33   19   20 ar
  34   20   21 ar
  35   20   26 1
  36   21   22 ar
  37   21   49 1
  38   22   23 ar
  39   22   50 1
  40   23   24 1
  41   24   25 2
  42   26   30 am
  43   26   27 1
  44   27   28 1
  45   27   51 1
  46   27   52 1
  47   28   29 1
  48   28   53 1
  49   28   54 1
  50   29   30 am
  51   29   55 1
  52   30   31 2
  53   32   33 1
  54   32   34 1
  55   32   35 1
  56   35   36 1
  57   35   37 1
  58   35   38 1

#	End of record

