#	Name: ASD03331029
#	Creating user name:	WinNT
#	Creation time:	15. 06. 2019 20:38

#	Modifying user name:	WinNT
#	Modification time:	15. 06. 2019 20:38

#	Program:	/corina/corina34_cracker 3.40 0067  02.08.2006

@<TRIPOS>MOLECULE
ASD03331029
  45   48    0    0    0
SMALL
NO_CHARGES


@<TRIPOS>ATOM
   1 C1            -0.0165     1.2102     0.0875 C.2     
   2 O2             0.0002    -0.0055     0.0572 O.2     
   3 N3             1.1406     1.8988     0.1473 N.am    
   4 C4             2.5717     1.5628     0.1910 C.3     
   5 C5             2.8043     2.8866     0.9323 C.3     
   6 C6             1.5279     3.3168     0.1909 C.3     
   7 F7             2.6638     2.7986     2.3214 F       
   8 F8             3.9558     3.5733     0.5325 F       
   9 N9            -3.4427     2.3785    -0.0402 N.pl3   
  10 C10           -2.5377     1.3637    -0.0127 C.2     
  11 C11           -2.8663    -0.1062    -0.0381 C.3     
  12 N12           -3.8507    -0.3619    -1.1012 N.3     
  13 C13           -5.2195    -0.2146    -0.6029 C.3     
  14 C14           -5.2980     0.8736     0.4640 C.3     
  15 C15           -4.8965     2.2219    -0.1401 C.3     
  16 C16           -2.7457     3.5496     0.0300 C.2     
  17 N17           -1.4639     3.2718     0.0803 N.2     
  18 C18           -1.3015     1.9305     0.0528 C.2     
  19 C19           -3.6478    -1.6885    -1.6985 C.3     
  20 C20           -3.3360     4.9053     0.0459 C.ar    
  21 C21           -2.9041     5.8474     0.9837 C.ar    
  22 C22           -3.4592     7.1126     0.9932 C.ar    
  23 C23           -4.4417     7.4471     0.0760 C.ar    
  24 C24           -4.8738     6.5154    -0.8562 C.ar    
  25 C25           -4.3220     5.2505    -0.8789 C.ar    
  26 F26           -4.9816     8.6855     0.0897 F       
  27 F27           -1.9464     5.5215     1.8791 F       
  28 Cl28          -6.1066     6.9432    -2.0011 Cl      
  29 H29            2.7927     0.6826     0.7947 H       
  30 H30            3.0397     1.5282    -0.7928 H       
  31 H31            1.7207     3.7446    -0.7930 H       
  32 H32            0.8596     3.9310     0.7945 H       
  33 H33           -1.9600    -0.6787    -0.2354 H       
  34 H34           -3.2837    -0.4028     0.9241 H       
  35 H35           -5.8760     0.0489    -1.4322 H       
  36 H36           -5.5483    -1.1612    -0.1739 H       
  37 H37           -6.3179     0.9359     0.8437 H       
  38 H38           -4.6219     0.6276     1.2829 H       
  39 H39           -5.3881     3.0269     0.4062 H       
  40 H40           -5.1955     2.2554    -1.1878 H       
  41 H41           -3.7568    -2.4536    -0.9299 H       
  42 H42           -4.3886    -1.8517    -2.4812 H       
  43 H43           -2.6474    -1.7446    -2.1277 H       
  44 H44           -3.1266     7.8418     1.7171 H       
  45 H45           -4.6561     4.5277    -1.6085 H       
@<TRIPOS>BOND
   1    1    2 2
   2    1    3 am
   3    1   18 1
   4    3    4 1
   5    3    6 1
   6    4    5 1
   7    4   29 1
   8    4   30 1
   9    5    6 1
  10    5    7 1
  11    5    8 1
  12    6   31 1
  13    6   32 1
  14    9   10 1
  15    9   15 1
  16    9   16 1
  17   10   11 1
  18   10   18 2
  19   11   12 1
  20   11   33 1
  21   11   34 1
  22   12   13 1
  23   12   19 1
  24   13   14 1
  25   13   35 1
  26   13   36 1
  27   14   15 1
  28   14   37 1
  29   14   38 1
  30   15   39 1
  31   15   40 1
  32   16   17 2
  33   16   20 1
  34   17   18 1
  35   19   41 1
  36   19   42 1
  37   19   43 1
  38   20   21 ar
  39   20   25 ar
  40   21   22 ar
  41   21   27 1
  42   22   23 ar
  43   22   44 1
  44   23   24 ar
  45   23   26 1
  46   24   25 ar
  47   24   28 1
  48   25   45 1

#	End of record

