#	Name: ASD03092483
#	Creating user name:	WinNT
#	Creation time:	15. 06. 2019 20:32

#	Modifying user name:	WinNT
#	Modification time:	15. 06. 2019 20:32

#	Program:	/corina/corina34_cracker 3.40 0067  02.08.2006

@<TRIPOS>MOLECULE
ASD03092483
  58   60    0    0    0
SMALL
NO_CHARGES


@<TRIPOS>ATOM
   1 C1            -0.3052     1.5286    -0.5252 C.2     
   2 C2            -0.3432     0.0361    -0.7304 C.3     
   3 C3             1.0855    -0.4997    -0.8429 C.3     
   4 C4             1.0523    -2.0271    -0.9261 C.3     
   5 O5             0.7597     2.1068    -0.4739 O.2     
   6 N6            -1.4548     2.2216    -0.4041 N.am    
   7 C7             1.7445     0.0655    -2.1027 C.3     
   8 C8            -1.4178     3.6725    -0.2046 C.3     
   9 S9            -5.0934     5.2001    -0.5977 S.3     
  10 C10           -4.7050     4.7005     0.9903 C.2     
  11 N11           -3.4990     4.2187     1.0289 N.2     
  12 C12           -2.8252     4.2012    -0.1006 C.2     
  13 C13           -3.5006     4.6976    -1.1582 C.2     
  14 N14           -5.5531     4.7958     2.0785 N.3     
  15 C15           -4.8101     5.1525     3.2959 C.3     
  16 C16           -5.7923     5.3057     4.4603 C.3     
  17 O17           -6.5339     4.0926     4.6145 O.3     
  18 C18           -7.2701     3.7156     3.4479 C.3     
  19 C19           -6.3029     3.5463     2.2732 C.3     
  20 C20           -4.0704     6.4734     3.0744 C.3     
  21 C21           -2.6324     6.0447    -4.5546 C.ar    
  22 C22           -3.1197     5.9929    -3.2667 C.ar    
  23 C23           -2.9944     4.8008    -2.5408 C.ar    
  24 C24           -2.3747     3.7095    -3.1643 C.ar    
  25 C25           -1.9165     3.8504    -4.4562 C.ar    
  26 N26           -2.0550     4.9923    -5.1042 N.ar    
  27 C27           -1.2476     2.6852    -5.1387 C.3     
  28 C28           -2.7660     7.3184    -5.3489 C.3     
  29 H29           -0.8421    -0.4345     0.1167 H       
  30 H30           -0.8895    -0.1910    -1.6458 H       
  31 H31            1.6576    -0.1960     0.0338 H       
  32 H32            0.4802    -2.3308    -1.8028 H       
  33 H33            2.0701    -2.4088    -1.0062 H       
  34 H34            0.5828    -2.4297    -0.0285 H       
  35 H35           -2.3066     1.7598    -0.4491 H       
  36 H36            1.1724    -0.2383    -2.9794 H       
  37 H37            1.7682     1.1536    -2.0434 H       
  38 H38            2.7623    -0.3163    -2.1828 H       
  39 H39           -0.8757     3.8994     0.7134 H       
  40 H40           -0.9146     4.1428    -1.0494 H       
  41 H41           -4.0913     4.3664     3.5271 H       
  42 H42           -5.2404     5.5140     5.3769 H       
  43 H43           -6.4776     6.1274     4.2526 H       
  44 H44           -7.7871     2.7739     3.6323 H       
  45 H45           -7.9985     4.4911     3.2107 H       
  46 H46           -6.8656     3.3149     1.3689 H       
  47 H47           -5.6080     2.7345     2.4880 H       
  48 H48           -4.7921     7.2640     2.8692 H       
  49 H49           -3.5002     6.7249     3.9686 H       
  50 H50           -3.3918     6.3721     2.2274 H       
  51 H51           -3.5905     6.8578    -2.8234 H       
  52 H52           -2.2576     2.7725    -2.6402 H       
  53 H53           -1.9973     2.0906    -5.6606 H       
  54 H54           -0.5145     3.0558    -5.8553 H       
  55 H55           -0.7470     2.0664    -4.3940 H       
  56 H56           -1.8885     7.9435    -5.1835 H       
  57 H57           -2.8466     7.0786    -6.4092 H       
  58 H58           -3.6595     7.8543    -5.0287 H       
@<TRIPOS>BOND
   1    1    2 1
   2    1    5 2
   3    1    6 am
   4    2    3 1
   5    2   29 1
   6    2   30 1
   7    3    4 1
   8    3    7 1
   9    3   31 1
  10    4   32 1
  11    4   33 1
  12    4   34 1
  13    6    8 1
  14    6   35 1
  15    7   36 1
  16    7   37 1
  17    7   38 1
  18    8   12 1
  19    8   39 1
  20    8   40 1
  21    9   10 1
  22    9   13 1
  23   10   11 2
  24   10   14 1
  25   11   12 1
  26   12   13 2
  27   13   23 1
  28   14   15 1
  29   14   19 1
  30   15   16 1
  31   15   20 1
  32   15   41 1
  33   16   17 1
  34   16   42 1
  35   16   43 1
  36   17   18 1
  37   18   19 1
  38   18   44 1
  39   18   45 1
  40   19   46 1
  41   19   47 1
  42   20   48 1
  43   20   49 1
  44   20   50 1
  45   21   22 ar
  46   21   26 ar
  47   21   28 1
  48   22   23 ar
  49   22   51 1
  50   23   24 ar
  51   24   25 ar
  52   24   52 1
  53   25   26 ar
  54   25   27 1
  55   27   53 1
  56   27   54 1
  57   27   55 1
  58   28   56 1
  59   28   57 1
  60   28   58 1

#	End of record

