#	Name: ASD01916082
#	Creating user name:	WinNT
#	Creation time:	15. 06. 2019 20:06

#	Modifying user name:	WinNT
#	Modification time:	15. 06. 2019 20:06

#	Program:	/corina/corina34_cracker 3.40 0067  02.08.2006

@<TRIPOS>MOLECULE
ASD01916082
  41   43    0    0    0
SMALL
NO_CHARGES


@<TRIPOS>ATOM
   1 C1            -0.3960     1.7257     0.1090 C.ar    
   2 C2            -0.5247     0.3754     0.3791 C.ar    
   3 N3             0.5207    -0.3514     0.7124 N.ar    
   4 C4             1.7372     0.1736     0.8041 C.ar    
   5 C5             1.9466     1.5248     0.5475 C.ar    
   6 C6             0.8603     2.3204     0.1924 C.ar    
   7 C7            -1.8822    -0.2732     0.2908 C.3     
   8 O8             1.0221     3.6430    -0.0665 O.3     
   9 C9             2.2725     4.1651     0.0377 C.ar    
  10 C10            3.2026     3.9709    -0.9731 C.ar    
  11 N11            4.4167     4.4755    -0.8762 N.ar    
  12 C12            4.7948     5.1784     0.1733 C.ar    
  13 C13            3.9241     5.4141     1.2211 C.ar    
  14 C14            2.6364     4.9072     1.1573 C.ar    
  15 C15            2.8814    -0.6873     1.1835 C.2     
  16 N16            2.6854    -1.9970     1.4339 N.am    
  17 O17            3.9967    -0.2127     1.2690 O.2     
  18 C18            3.7715    -2.8263     1.6868 C.ar    
  19 C19            3.5704    -4.1968     1.8281 C.ar    
  20 C20            4.6528    -5.0150     2.0791 C.ar    
  21 C21            5.9224    -4.4275     2.1826 C.ar    
  22 C22            6.0435    -3.0450     2.0288 C.ar    
  23 N23            4.9847    -2.3021     1.7848 N.ar    
  24 C24            6.1952     5.7320     0.2318 C.3     
  25 C25            7.0771    -5.2336     2.4427 C.1     
  26 N26            7.9931    -5.8731     2.6490 N.1     
  27 H27           -1.2599     2.3117    -0.1679 H       
  28 H28            2.9364     1.9503     0.6228 H       
  29 H29           -2.0427    -0.6437    -0.7216 H       
  30 H30           -1.9342    -1.1042     0.9943 H       
  31 H31           -2.6514     0.4591     0.5360 H       
  32 H32            2.9294     3.4000    -1.8482 H       
  33 H33            4.2426     5.9903     2.0771 H       
  34 H34            1.9351     5.0758     1.9611 H       
  35 H35            1.7862    -2.3608     1.4375 H       
  36 H36            2.5782    -4.6148     1.7425 H       
  37 H37            4.5256    -6.0814     2.1934 H       
  38 H38            7.0158    -2.5814     2.1067 H       
  39 H39            6.2119     6.7262    -0.2149 H       
  40 H40            6.5179     5.7952     1.2710 H       
  41 H41            6.8689     5.0751    -0.3185 H       
@<TRIPOS>BOND
   1    1    2 ar
   2    1    6 ar
   3    1   27 1
   4    2    3 ar
   5    2    7 1
   6    3    4 ar
   7    4    5 ar
   8    4   15 1
   9    5    6 ar
  10    5   28 1
  11    6    8 1
  12    7   29 1
  13    7   30 1
  14    7   31 1
  15    8    9 1
  16    9   10 ar
  17    9   14 ar
  18   10   11 ar
  19   10   32 1
  20   11   12 ar
  21   12   13 ar
  22   12   24 1
  23   13   14 ar
  24   13   33 1
  25   14   34 1
  26   15   16 am
  27   15   17 2
  28   16   18 1
  29   16   35 1
  30   18   19 ar
  31   18   23 ar
  32   19   20 ar
  33   19   36 1
  34   20   21 ar
  35   20   37 1
  36   21   22 ar
  37   21   25 1
  38   22   23 ar
  39   22   38 1
  40   24   39 1
  41   24   40 1
  42   24   41 1
  43   25   26 3

#	End of record

