#	Name: ASD02038636
#	Creating user name:	WinNT
#	Creation time:	15. 06. 2019 20:17

#	Modifying user name:	WinNT
#	Modification time:	15. 06. 2019 20:17

#	Program:	/corina/corina34_cracker 3.40 0067  02.08.2006

@<TRIPOS>MOLECULE
ASD02038636
  47   49    0    0    0
SMALL
NO_CHARGES


@<TRIPOS>ATOM
   1 C1             2.3812     1.4142     0.0041 C.ar    
   2 C2             2.4054     0.0333    -0.0045 C.ar    
   3 C3             1.1715     2.0862     0.0040 C.ar    
   4 C4            -0.0167     1.3770    -0.0042 C.ar    
   5 C5             0.0020    -0.0040    -0.0123 C.ar    
   6 C6             1.2145    -0.6807    -0.0132 C.ar    
   7 N7             1.2363    -2.0805    -0.0215 N.am    
   8 C8             0.0569    -2.9517     0.0905 C.3     
   9 C9             0.6424    -4.3757     0.0268 C.3     
  10 N10            2.0895    -4.1557    -0.1142 N.am    
  11 C11            2.3341    -2.8390    -0.1384 C.2     
  12 C12            3.1021    -5.2093    -0.2182 C.3     
  13 C13            3.3138    -5.5698    -1.6899 C.3     
  14 C14            4.3714    -6.6701    -1.7985 C.3     
  15 C15            4.6736    -6.9433    -3.2733 C.3     
  16 O16            5.7427    -7.8862    -3.3737 O.3     
  17 C17            6.1379    -8.2403    -4.6257 C.ar    
  18 C18            7.1701    -9.1510    -4.7954 C.ar    
  19 C19            5.5050    -7.6952    -5.7329 C.ar    
  20 C20            5.9064    -8.0549    -7.0047 C.ar    
  21 C21            6.9428    -8.9610    -7.1745 C.ar    
  22 C22            7.5716    -9.5107    -6.0672 C.ar    
  23 O23            7.3374    -9.3158    -8.4265 O.3     
  24 O24            3.8819    -7.8636    -1.1835 O.3     
  25 O25            3.4524    -2.3743    -0.2474 O.2     
  26 Cl26           1.1445     3.8220     0.0148 Cl      
  27 H27            3.3071     1.9700     0.0154 H       
  28 H28            3.3498    -0.4907    -0.0049 H       
  29 H29           -0.9595     1.9038    -0.0039 H       
  30 H30           -0.9256    -0.5571    -0.0180 H       
  31 H31           -0.4503    -2.7887     1.0414 H       
  32 H32           -0.6253    -2.7809    -0.7423 H       
  33 H33            0.4259    -4.9198     0.9462 H       
  34 H34            0.2509    -4.9121    -0.8376 H       
  35 H35            4.0407    -4.8544     0.2076 H       
  36 H36            2.7662    -6.0912     0.3273 H       
  37 H37            2.3752    -5.9247    -2.1157 H       
  38 H38            3.6497    -4.6879    -2.2354 H       
  39 H39            5.2828    -6.3490    -1.2943 H       
  40 H40            3.7850    -7.3487    -3.7572 H       
  41 H41            4.9620    -6.0134    -3.7634 H       
  42 H42            7.6603    -9.5786    -3.9333 H       
  43 H43            4.6980    -6.9897    -5.6007 H       
  44 H44            5.4131    -7.6310    -7.8668 H       
  45 H45            8.3788   -10.2160    -6.1994 H       
  46 H46            8.0325    -8.7529    -8.7941 H       
  47 H47            3.0707    -8.2072    -1.5821 H       
@<TRIPOS>BOND
   1    1    2 ar
   2    1    3 ar
   3    1   27 1
   4    2    6 ar
   5    2   28 1
   6    3    4 ar
   7    3   26 1
   8    4    5 ar
   9    4   29 1
  10    5    6 ar
  11    5   30 1
  12    6    7 1
  13    7    8 1
  14    7   11 am
  15    8    9 1
  16    8   31 1
  17    8   32 1
  18    9   10 1
  19    9   33 1
  20    9   34 1
  21   10   11 am
  22   10   12 1
  23   11   25 2
  24   12   13 1
  25   12   35 1
  26   12   36 1
  27   13   14 1
  28   13   37 1
  29   13   38 1
  30   14   15 1
  31   14   24 1
  32   14   39 1
  33   15   16 1
  34   15   40 1
  35   15   41 1
  36   16   17 1
  37   17   18 ar
  38   17   19 ar
  39   18   22 ar
  40   18   42 1
  41   19   20 ar
  42   19   43 1
  43   20   21 ar
  44   20   44 1
  45   21   22 ar
  46   21   23 1
  47   22   45 1
  48   23   46 1
  49   24   47 1

#	End of record

