#	Name: ASD08710072
#	Creating user name:	WinNT
#	Creation time:	15. 06. 2019 21:19

#	Modifying user name:	WinNT
#	Modification time:	15. 06. 2019 21:19

#	Program:	/corina/corina34_cracker 3.40 0067  02.08.2006

@<TRIPOS>MOLECULE
ASD08710072
  60   62    0    0    0
SMALL
NO_CHARGES


@<TRIPOS>ATOM
   1 N1            -0.3197     1.5459     0.4586 N.am    
   2 C2            -0.2554     0.0785     0.4083 C.3     
   3 C3             0.9099    -0.3301    -0.5014 C.3     
   4 N4             2.1078     0.4178    -0.0945 N.am    
   5 C5             2.0435     1.8852    -0.0442 C.3     
   6 C6             0.8783     2.2937     0.8655 C.3     
   7 S7             3.5049    -0.3787     0.3006 S.o2    
   8 O8             4.2424     0.4979     1.1415 O.2     
   9 O9             3.1224    -1.6906     0.6903 O.2     
  10 C10            4.4427    -0.5532    -1.1809 C.ar    
  11 C11            5.3470     0.4266    -1.5459 C.ar    
  12 C12            6.0826     0.2897    -2.7082 C.ar    
  13 C13            5.9143    -0.8271    -3.5052 C.ar    
  14 C14            5.0107    -1.8073    -3.1397 C.ar    
  15 C15            4.2782    -1.6725    -1.9752 C.ar    
  16 C16            6.7156    -0.9759    -4.7728 C.3     
  17 F17            7.9120    -1.6448    -4.4925 F       
  18 F18            5.9782    -1.7110    -5.7071 F       
  19 F19            7.0007     0.2901    -5.2956 F       
  20 C20           -1.5657    -0.4738    -0.1564 C.3     
  21 C21           -1.4552     2.1943     0.1322 C.2     
  22 O22           -2.4032     1.5749    -0.3106 O.2     
  23 C23           -2.0212     4.4675    -0.7204 C.ar    
  24 C24           -1.5479     3.6558     0.3120 C.ar    
  25 C25           -1.1620     4.2497     1.5232 C.ar    
  26 C26           -1.2652     5.6092     1.6460 C.ar    
  27 C27           -1.7465     6.3579     0.5738 C.ar    
  28 N28           -2.1046     5.7716    -0.5607 N.ar    
  29 C29           -2.4340     3.8468    -2.0301 C.3     
  30 N30           -1.8527     7.7332     0.6946 N.3     
  31 C31           -2.3799     8.3335    -0.5450 C.3     
  32 C32           -3.2405     9.2534     0.3324 C.3     
  33 C33           -3.1192     8.1100     1.3495 C.3     
  34 H34           -0.0917    -0.3152     1.4115 H       
  35 H35            1.0948    -1.3996    -0.4010 H       
  36 H36            0.6656    -0.0942    -1.5371 H       
  37 H37            2.9770     2.2787     0.3581 H       
  38 H38            1.8799     2.2788    -1.0474 H       
  39 H39            0.6934     3.3633     0.7651 H       
  40 H40            1.1226     2.0578     1.9012 H       
  41 H41            5.4785     1.2991    -0.9232 H       
  42 H42            6.7886     1.0555    -2.9937 H       
  43 H43            4.8790    -2.6797    -3.7626 H       
  44 H44            3.5748    -2.4400    -1.6877 H       
  45 H45           -1.7346    -0.0622    -1.1515 H       
  46 H46           -1.5053    -1.5604    -0.2181 H       
  47 H47           -2.3906    -0.1924     0.4981 H       
  48 H48           -0.7922     3.6479     2.3402 H       
  49 H49           -0.9767     6.0968     2.5655 H       
  50 H50           -3.5057     3.6483    -2.0163 H       
  51 H51           -2.2018     4.5315    -2.8459 H       
  52 H52           -1.8931     2.9117    -2.1755 H       
  53 H53           -1.6259     8.8667    -1.1240 H       
  54 H54           -2.9636     7.6393    -1.1495 H       
  55 H55           -2.7431    10.1747     0.6353 H       
  56 H56           -4.2514     9.4109    -0.0435 H       
  57 H57           -3.9003     7.3561     1.2506 H       
  58 H58           -2.9918     8.4536     2.3761 H       
  59 Cl59          12.9120    15.1747     7.5655 Cl      
  60 H60           12.9120    16.5447     7.5655 H       
@<TRIPOS>BOND
   1    1    2 1
   2    1    6 1
   3    1   21 am
   4    2    3 1
   5    2   20 1
   6    2   34 1
   7    3    4 1
   8    3   35 1
   9    3   36 1
  10    4    5 1
  11    4    7 am
  12    5    6 1
  13    5   37 1
  14    5   38 1
  15    6   39 1
  16    6   40 1
  17    7    8 2
  18    7    9 2
  19    7   10 1
  20   10   11 ar
  21   10   15 ar
  22   11   12 ar
  23   11   41 1
  24   12   13 ar
  25   12   42 1
  26   13   14 ar
  27   13   16 1
  28   14   15 ar
  29   14   43 1
  30   15   44 1
  31   16   17 1
  32   16   18 1
  33   16   19 1
  34   20   45 1
  35   20   46 1
  36   20   47 1
  37   21   22 2
  38   21   24 1
  39   23   24 ar
  40   23   28 ar
  41   23   29 1
  42   24   25 ar
  43   25   26 ar
  44   25   48 1
  45   26   27 ar
  46   26   49 1
  47   27   28 ar
  48   27   30 1
  49   29   50 1
  50   29   51 1
  51   29   52 1
  52   30   31 1
  53   30   33 1
  54   31   32 1
  55   31   53 1
  56   31   54 1
  57   32   33 1
  58   32   55 1
  59   32   56 1
  60   33   57 1
  61   33   58 1
  62   59   60 1

#	End of record

