#	Name: ASD01150924
#	Creating user name:	WinNT
#	Creation time:	15. 06. 2019 19:05

#	Modifying user name:	WinNT
#	Modification time:	15. 06. 2019 19:05

#	Program:	/corina/corina34_cracker 3.40 0067  02.08.2006

@<TRIPOS>MOLECULE
ASD01150924
  52   55    0    0    0
SMALL
NO_CHARGES


@<TRIPOS>ATOM
   1 C1            -0.0179     1.4652     0.0101 C.2     
   2 C2             0.0021    -0.0041     0.0020 C.2     
   3 N3             1.1783    -0.6620    -0.0122 N.am    
   4 O4            -1.0431    -0.6266     0.0082 O.2     
   5 C5             1.1971    -2.0515    -0.0199 C.2     
   6 N6             0.1293    -2.8532    -0.0149 N.2     
   7 C7             0.5116    -4.1139    -0.0255 C.2     
   8 N8             1.8684    -4.1725    -0.0379 N.pl3   
   9 C9             2.3304    -2.8552    -0.0401 C.2     
  10 C10            3.6731    -2.4275    -0.0521 C.2     
  11 O11            4.6715    -3.3370    -0.0630 O.3     
  12 O12            3.9333    -1.2377    -0.0526 O.2     
  13 C13            6.0085    -2.8326    -0.0748 C.3     
  14 C14            6.9947    -4.0023    -0.0860 C.3     
  15 S15           -0.5683    -5.5061    -0.0238 S.3     
  16 C16           -2.1693    -4.6619    -0.0055 C.3     
  17 C17            2.6896    -5.3856    -0.0522 C.3     
  18 C18            2.9590    -5.7932    -1.4778 C.ar    
  19 C19            4.0739    -5.3089    -2.1362 C.ar    
  20 C20            4.3210    -5.6827    -3.4439 C.ar    
  21 C21            3.4535    -6.5411    -4.0931 C.ar    
  22 C22            2.3390    -7.0260    -3.4344 C.ar    
  23 C23            2.0943    -6.6557    -2.1253 C.ar    
  24 S24            1.4118     2.4828     0.0019 S.3     
  25 C25            0.4325     3.9449     0.0184 C.ar    
  26 C26           -0.9249     3.6000     0.0293 C.ar    
  27 C27           -1.1280     2.2107     0.0189 C.2     
  28 C28            0.8087     5.2923     0.0222 C.ar    
  29 C29           -0.1493     6.2770     0.0365 C.ar    
  30 C30           -1.4976     5.9401     0.0473 C.ar    
  31 C31           -1.8874     4.6380     0.0431 C.ar    
  32 H32            2.0116    -0.1656    -0.0172 H       
  33 H33            6.1587    -2.2222    -0.9652 H       
  34 H34            6.1754    -2.2251     0.8147 H       
  35 H35            6.8445    -4.6127     0.8045 H       
  36 H36            6.8277    -4.6098    -0.9754 H       
  37 H37            8.0145    -3.6176    -0.0950 H       
  38 H38           -2.9700    -5.4015    -0.0026 H       
  39 H39           -2.2434    -4.0428     0.8885 H       
  40 H40           -2.2587    -4.0331    -0.8913 H       
  41 H41            3.6346    -5.1906     0.4547 H       
  42 H42            2.1607    -6.1885     0.4614 H       
  43 H43            4.7517    -4.6383    -1.6289 H       
  44 H44            5.1917    -5.3038    -3.9584 H       
  45 H45            3.6461    -6.8325    -5.1150 H       
  46 H46            1.6611    -7.6964    -3.9418 H       
  47 H47            1.2236    -7.0345    -1.6107 H       
  48 H48           -2.1153     1.7731     0.0252 H       
  49 H49            1.8552     5.5592     0.0141 H       
  50 H50            0.1462     7.3158     0.0397 H       
  51 H51           -2.2434     6.7211     0.0589 H       
  52 H52           -2.9393     4.3935     0.0517 H       
@<TRIPOS>BOND
   1    1    2 1
   2    1   24 1
   3    1   27 2
   4    2    3 am
   5    2    4 2
   6    3    5 1
   7    3   32 1
   8    5    6 1
   9    5    9 2
  10    6    7 2
  11    7    8 1
  12    7   15 1
  13    8    9 1
  14    8   17 1
  15    9   10 1
  16   10   11 1
  17   10   12 2
  18   11   13 1
  19   13   14 1
  20   13   33 1
  21   13   34 1
  22   14   35 1
  23   14   36 1
  24   14   37 1
  25   15   16 1
  26   16   38 1
  27   16   39 1
  28   16   40 1
  29   17   18 1
  30   17   41 1
  31   17   42 1
  32   18   19 ar
  33   18   23 ar
  34   19   20 ar
  35   19   43 1
  36   20   21 ar
  37   20   44 1
  38   21   22 ar
  39   21   45 1
  40   22   23 ar
  41   22   46 1
  42   23   47 1
  43   24   25 1
  44   25   26 ar
  45   25   28 ar
  46   26   27 1
  47   26   31 ar
  48   27   48 1
  49   28   29 ar
  50   28   49 1
  51   29   30 ar
  52   29   50 1
  53   30   31 ar
  54   30   51 1
  55   31   52 1

#	End of record

