#	Name: ASD04882048
#	Creating user name:	WinNT
#	Creation time:	15. 06. 2019 20:53

#	Modifying user name:	WinNT
#	Modification time:	15. 06. 2019 20:53

#	Program:	/corina/corina34_cracker 3.40 0067  02.08.2006

@<TRIPOS>MOLECULE
ASD04882048
  83   88    0    0    0
SMALL
NO_CHARGES


@<TRIPOS>ATOM
   1 C1             1.5180     1.4368     1.7947 C.ar    
   2 C2             1.4802     0.0566     1.8139 C.ar    
   3 C3             2.6611    -0.6677     1.9187 C.ar    
   4 C4             3.8762    -0.0003     2.0039 C.ar    
   5 C5             3.9068     1.3805     1.9841 C.ar    
   6 C6             2.7296     2.0982     1.8797 C.ar    
   7 C7             5.1597    -0.7817     2.1182 C.3     
   8 N8             2.6265    -2.0639     1.9389 N.3     
   9 C9             3.2421    -2.6235     0.7276 C.3     
  10 C10            3.2560    -4.1509     0.8246 C.3     
  11 N11            1.8802    -4.6413     0.9874 N.3     
  12 C12            1.2646    -4.0816     2.1988 C.3     
  13 C13            1.2508    -2.5543     2.1018 C.3     
  14 C14            1.8457    -6.0331     1.0075 C.ar    
  15 C15            2.1833    -6.7562    -0.1399 C.ar    
  16 C16            2.1489    -8.1378    -0.1196 C.ar    
  17 C17            1.7764    -8.8074     1.0493 C.ar    
  18 C18            1.4401    -8.0781     2.1933 C.ar    
  19 C19            1.4811    -6.7017     2.1706 C.ar    
  20 C20            1.7379   -10.2820     1.0755 C.2     
  21 N21            1.3785   -10.9267     2.2032 N.am    
  22 O22            2.0302   -10.9156     0.0798 O.2     
  23 C23            1.3402   -12.3910     2.2292 C.3     
  24 C24            0.9046   -12.8652     3.6171 C.3     
  25 C25            0.8646   -14.3944     3.6443 C.3     
  26 N26            0.4474   -14.8484     4.9733 N.am    
  27 C27           -0.9465   -15.0811     5.3691 C.3     
  28 C28           -0.9366   -15.1124     6.9136 C.3     
  29 C29            0.5185   -15.5429     7.2109 C.3     
  30 C30            1.2927   -15.1110     5.9850 C.2     
  31 O31            2.4998   -15.0092     5.9259 O.2     
  32 N32            2.5557    -6.0813    -1.3097 N.am    
  33 C33            3.3609    -6.6829    -2.2076 C.2     
  34 O34            3.7004    -7.8385    -2.0413 O.2     
  35 C35            3.8311    -5.9382    -3.3938 C.ar    
  36 C36            4.6584    -6.5616    -4.3132 C.ar    
  37 C37            3.4303    -4.6033    -3.5840 C.ar    
  38 C38            3.8482    -3.8987    -4.6660 C.ar    
  39 C39            4.6932    -4.5021    -5.6156 C.ar    
  40 C40            5.1008    -5.8486    -5.4375 C.ar    
  41 C41            5.1388    -3.7929    -6.7435 C.ar    
  42 C42            5.9563    -4.4031    -7.6450 C.ar    
  43 C43            6.3607    -5.7249    -7.4679 C.ar    
  44 C44            5.9460    -6.4454    -6.3904 C.ar    
  45 H45            0.6007     2.0003     1.7087 H       
  46 H46            0.5336    -0.4593     1.7479 H       
  47 H47            4.8513     1.9001     2.0503 H       
  48 H48            2.7564     3.1777     1.8641 H       
  49 H49            5.5096    -1.0534     1.1223 H       
  50 H50            5.9140    -0.1709     2.6143 H       
  51 H51            4.9838    -1.6860     2.7008 H       
  52 H52            2.6662    -2.3198    -0.1466 H       
  53 H53            4.2641    -2.2557     0.6358 H       
  54 H54            3.6858    -4.5692    -0.0856 H       
  55 H55            3.8546    -4.4553     1.6831 H       
  56 H56            0.2427    -4.4495     2.2905 H       
  57 H57            1.8406    -4.3853     3.0729 H       
  58 H58            0.8209    -2.1359     3.0119 H       
  59 H59            0.6522    -2.2498     1.2432 H       
  60 H60            2.4090    -8.6987    -1.0051 H       
  61 H61            1.1518    -8.5945     3.0969 H       
  62 H62            1.2207    -6.1403     3.0557 H       
  63 H63            1.1453   -10.4213     2.9975 H       
  64 H64            0.6305   -12.7492     1.4836 H       
  65 H65            2.3318   -12.7844     2.0055 H       
  66 H66            1.6143   -12.5070     4.3628 H       
  67 H67           -0.0870   -12.4717     3.8409 H       
  68 H68            0.1548   -14.7526     2.8987 H       
  69 H69            1.8562   -14.7878     3.4206 H       
  70 H70           -1.5804   -14.2693     5.0124 H       
  71 H71           -1.2964   -16.0351     4.9747 H       
  72 H72           -1.1429   -14.1244     7.3251 H       
  73 H73           -1.6462   -15.8475     7.2934 H       
  74 H74            0.8924   -15.0353     8.1001 H       
  75 H75            0.5788   -16.6242     7.3340 H       
  76 H76            2.2340    -5.1810    -1.4735 H       
  77 H77            4.9608    -7.5878    -4.1655 H       
  78 H78            2.7815    -4.1332    -2.8598 H       
  79 H79            3.5317    -2.8747    -4.7985 H       
  80 H80            4.8337    -2.7680    -6.8949 H       
  81 H81            6.2963    -3.8545    -8.5109 H       
  82 H82            7.0094    -6.1854    -8.1983 H       
  83 H83            6.2674    -7.4688    -6.2655 H       
@<TRIPOS>BOND
   1    1    2 ar
   2    1    6 ar
   3    1   45 1
   4    2    3 ar
   5    2   46 1
   6    3    4 ar
   7    3    8 1
   8    4    5 ar
   9    4    7 1
  10    5    6 ar
  11    5   47 1
  12    6   48 1
  13    7   49 1
  14    7   50 1
  15    7   51 1
  16    8    9 1
  17    8   13 1
  18    9   10 1
  19    9   52 1
  20    9   53 1
  21   10   11 1
  22   10   54 1
  23   10   55 1
  24   11   12 1
  25   11   14 1
  26   12   13 1
  27   12   56 1
  28   12   57 1
  29   13   58 1
  30   13   59 1
  31   14   15 ar
  32   14   19 ar
  33   15   16 ar
  34   15   32 1
  35   16   17 ar
  36   16   60 1
  37   17   18 ar
  38   17   20 1
  39   18   19 ar
  40   18   61 1
  41   19   62 1
  42   20   21 am
  43   20   22 2
  44   21   23 1
  45   21   63 1
  46   23   24 1
  47   23   64 1
  48   23   65 1
  49   24   25 1
  50   24   66 1
  51   24   67 1
  52   25   26 1
  53   25   68 1
  54   25   69 1
  55   26   27 1
  56   26   30 am
  57   27   28 1
  58   27   70 1
  59   27   71 1
  60   28   29 1
  61   28   72 1
  62   28   73 1
  63   29   30 1
  64   29   74 1
  65   29   75 1
  66   30   31 2
  67   32   33 am
  68   32   76 1
  69   33   34 2
  70   33   35 1
  71   35   36 ar
  72   35   37 ar
  73   36   40 ar
  74   36   77 1
  75   37   38 ar
  76   37   78 1
  77   38   39 ar
  78   38   79 1
  79   39   40 ar
  80   39   41 ar
  81   40   44 ar
  82   41   42 ar
  83   41   80 1
  84   42   43 ar
  85   42   81 1
  86   43   44 ar
  87   43   82 1
  88   44   83 1

#	End of record

