#	Name: ASD08070320
#	Creating user name:	WinNT
#	Creation time:	15. 06. 2019 21:14

#	Modifying user name:	WinNT
#	Modification time:	15. 06. 2019 21:14

#	Program:	/corina/corina34_cracker 3.40 0067  02.08.2006

@<TRIPOS>MOLECULE
ASD08070320
  47   47    0    0    0
SMALL
NO_CHARGES


@<TRIPOS>ATOM
   1 N1            -0.0162     1.3436     0.0094 N.am    
   2 C2             0.1023     0.0010     0.0185 C.2     
   3 O3             1.2004    -0.5130    -0.0738 O.2     
   4 N4            -0.9963    -0.7717     0.1298 N.am    
   5 C5             1.0988    -2.6529     3.4232 C.3     
   6 C6             0.7991    -2.1770     2.0003 C.3     
   7 C7            -0.5678    -2.7069     1.5625 C.3     
   8 C8            -0.8674    -2.2310     0.1396 C.3     
   9 C9            -2.1747    -2.8617    -0.3444 C.3     
  10 C10           -2.4106    -2.4861    -1.8087 C.3     
  11 C11           -3.7179    -3.1167    -2.2927 C.3     
  12 C12            1.1327     2.1494    -0.0210 C.ar    
  13 C13            1.0904     3.4436     0.4926 C.ar    
  14 C14            2.2257     4.2359     0.4616 C.ar    
  15 C15            3.4022     3.7398    -0.0805 C.ar    
  16 C16            3.4425     2.4512    -0.5914 C.ar    
  17 C17            2.3123     1.6560    -0.5570 C.ar    
  18 O18            4.5169     4.5178    -0.1115 O.3     
  19 C19            5.6934     3.9433    -0.6839 C.3     
  20 O20           -0.0639     3.9283     1.0232 O.3     
  21 C21           -0.0340     5.2636     1.5313 C.3     
  22 H22           -0.8955     1.7529     0.0199 H       
  23 H23           -1.8723    -0.3617     0.2034 H       
  24 H24            0.3305    -2.2798     4.1005 H       
  25 H25            1.1068    -3.7426     3.4477 H       
  26 H26            2.0726    -2.2753     3.7351 H       
  27 H27            0.7912    -1.0873     1.9758 H       
  28 H28            1.5674    -2.5500     1.3230 H       
  29 H29           -0.5598    -3.7966     1.5870 H       
  30 H30           -1.3360    -2.3339     2.2398 H       
  31 H31           -0.0538    -2.5284    -0.5219 H       
  32 H32           -2.1106    -3.9460    -0.2532 H       
  33 H33           -3.0020    -2.4943     0.2628 H       
  34 H34           -2.4747    -1.4018    -1.8998 H       
  35 H35           -1.5833    -2.8534    -2.4159 H       
  36 H36           -3.6538    -4.2010    -2.2015 H       
  37 H37           -4.5452    -2.7493    -1.6855 H       
  38 H38           -3.8860    -2.8491    -3.3359 H       
  39 H39            2.1950     5.2397     0.8589 H       
  40 H40            4.3595     2.0668    -1.0130 H       
  41 H41            2.3471     0.6512    -0.9514 H       
  42 H42            5.4972     3.6713    -1.7210 H       
  43 H43            6.5069     4.6677    -0.6459 H       
  44 H44            5.9734     3.0526    -0.1214 H       
  45 H45            0.2311     5.9518     0.7287 H       
  46 H46           -1.0165     5.5249     1.9243 H       
  47 H47            0.7063     5.3325     2.3283 H       
@<TRIPOS>BOND
   1    1    2 am
   2    1   12 1
   3    1   22 1
   4    2    3 2
   5    2    4 am
   6    4    8 1
   7    4   23 1
   8    5    6 1
   9    5   24 1
  10    5   25 1
  11    5   26 1
  12    6    7 1
  13    6   27 1
  14    6   28 1
  15    7    8 1
  16    7   29 1
  17    7   30 1
  18    8    9 1
  19    8   31 1
  20    9   10 1
  21    9   32 1
  22    9   33 1
  23   10   11 1
  24   10   34 1
  25   10   35 1
  26   11   36 1
  27   11   37 1
  28   11   38 1
  29   12   13 ar
  30   12   17 ar
  31   13   14 ar
  32   13   20 1
  33   14   15 ar
  34   14   39 1
  35   15   16 ar
  36   15   18 1
  37   16   17 ar
  38   16   40 1
  39   17   41 1
  40   18   19 1
  41   19   42 1
  42   19   43 1
  43   19   44 1
  44   20   21 1
  45   21   45 1
  46   21   46 1
  47   21   47 1

#	End of record

