#	Name: ASD06660145
#	Creating user name:	WinNT
#	Creation time:	15. 06. 2019 21:08

#	Modifying user name:	WinNT
#	Modification time:	15. 06. 2019 21:08

#	Program:	/corina/corina34_cracker 3.40 0067  02.08.2006

@<TRIPOS>MOLECULE
ASD06660145
  79   82    0    0    0
SMALL
NO_CHARGES


@<TRIPOS>ATOM
   1 C1             0.0685     1.6584     0.9332 C.2     
   2 C2             0.0103     0.2631     0.3669 C.3     
   3 C3            -1.0695     0.1964    -0.7150 C.3     
   4 O4             1.0899     2.2994     0.8566 O.2     
   5 O5            -1.0160     2.1912     1.5178 O.3     
   6 C6            -1.2186    -1.2264    -1.1889 C.ar    
   7 C7            -2.0912    -2.0814    -0.5410 C.ar    
   8 C8            -2.2302    -3.3859    -0.9727 C.ar    
   9 C9            -1.4923    -3.8387    -2.0590 C.ar    
  10 C10           -0.6167    -2.9771    -2.7076 C.ar    
  11 C11           -0.4867    -1.6722    -2.2742 C.ar    
  12 N12           -1.6301    -5.1575    -2.4980 N.3     
  13 C13           -0.7622    -5.4212    -3.6528 C.3     
  14 C14           -1.0450    -6.8239    -4.1954 C.3     
  15 C15           -0.7859    -7.8542    -3.0927 C.3     
  16 C16           -1.6669    -7.5284    -1.8834 C.3     
  17 C17           -1.3660    -6.1053    -1.4079 C.3     
  18 C18           -1.1251    -9.2534    -3.6103 C.3     
  19 N19           -0.7650   -10.2492    -2.5979 N.pl3   
  20 C20           -0.9818   -11.6001    -2.8437 C.ar    
  21 C21           -1.5413   -11.9996    -4.0534 C.ar    
  22 C22           -1.7516   -13.3468    -4.2847 C.ar    
  23 C23           -1.3940   -14.2530    -3.2949 C.ar    
  24 C24           -0.8434   -13.7867    -2.1183 C.ar    
  25 N25           -0.6492   -12.4954    -1.9269 N.ar    
  26 N26            1.3089    -0.0813    -0.2174 N.am    
  27 C27            2.3347    -0.4356     0.5817 C.2     
  28 C28            3.6692    -0.6950     0.0004 C.ar    
  29 C29            4.0670    -2.0020    -0.2862 C.ar    
  30 C30            5.3131    -2.2370    -0.8289 C.ar    
  31 C31            6.1684    -1.1807    -1.0889 C.ar    
  32 C32            5.7805     0.1169    -0.8068 C.ar    
  33 C33            4.5343     0.3663    -0.2696 C.ar    
  34 O34            2.1628    -0.5419     1.7803 O.2     
  35 S35            7.7587    -1.4898    -1.7817 S.o2    
  36 O36            8.5481    -0.3893    -1.3518 O.2     
  37 O37            8.0667    -2.8158    -1.3742 O.2     
  38 C38            7.4926    -1.4205    -3.5747 C.3     
  39 F39            7.0068    -0.1563    -3.9255 F       
  40 F40            8.7034    -1.6546    -4.2353 F       
  41 F41            6.5623    -2.3971    -3.9462 F       
  42 C42            4.1110     1.7810     0.0312 C.3     
  43 C43            3.1372    -3.1537    -0.0028 C.3     
  44 C44            2.2024    -3.3600    -1.1962 C.3     
  45 H45           -0.2286    -0.4424     1.1627 H       
  46 H46           -2.0175     0.5437    -0.3040 H       
  47 H47           -0.7831     0.8307    -1.5539 H       
  48 H48           -0.9304     3.0892     1.8662 H       
  49 H49           -2.6643    -1.7289     0.3038 H       
  50 H50           -2.9116    -4.0533    -0.4660 H       
  51 H51           -0.0415    -3.3259    -3.5525 H       
  52 H52            0.1903    -1.0005    -2.7809 H       
  53 H53           -0.9595    -4.6841    -4.4312 H       
  54 H54            0.2814    -5.3542    -3.3455 H       
  55 H55           -2.0849    -6.8874    -4.5156 H       
  56 H56           -0.3897    -7.0253    -5.0428 H       
  57 H57            0.2633    -7.8178    -2.7993 H       
  58 H58           -2.7166    -7.6030    -2.1673 H       
  59 H59           -1.4559    -8.2331    -1.0791 H       
  60 H60           -0.3196    -6.0351    -1.1111 H       
  61 H61           -2.0019    -5.8651    -0.5558 H       
  62 H62           -2.1936    -9.3153    -3.8168 H       
  63 H63           -0.5663    -9.4475    -4.5258 H       
  64 H64           -0.3752    -9.9659    -1.7561 H       
  65 H65           -1.8081   -11.2676    -4.8014 H       
  66 H66           -2.1845   -13.6865    -5.2140 H       
  67 H67           -1.5455   -15.3118    -3.4442 H       
  68 H68           -0.5639   -14.4879    -1.3459 H       
  69 H69            1.4303    -0.0544    -1.1794 H       
  70 H70            5.6221    -3.2478    -1.0511 H       
  71 H71            6.4528     0.9368    -1.0118 H       
  72 H72            4.4048     2.0396     1.0485 H       
  73 H73            4.5932     2.4616    -0.6704 H       
  74 H74            3.0286     1.8650    -0.0668 H       
  75 H75            3.7207    -4.0594     0.1626 H       
  76 H76            2.5474    -2.9339     0.8871 H       
  77 H77            1.4662    -4.1261    -0.9529 H       
  78 H78            1.6915    -2.4243    -1.4236 H       
  79 H79            2.7834    -3.6765    -2.0625 H       
@<TRIPOS>BOND
   1    1    2 1
   2    1    4 2
   3    1    5 1
   4    2    3 1
   5    2   26 1
   6    2   45 1
   7    3    6 1
   8    3   46 1
   9    3   47 1
  10    5   48 1
  11    6    7 ar
  12    6   11 ar
  13    7    8 ar
  14    7   49 1
  15    8    9 ar
  16    8   50 1
  17    9   10 ar
  18    9   12 1
  19   10   11 ar
  20   10   51 1
  21   11   52 1
  22   12   13 1
  23   12   17 1
  24   13   14 1
  25   13   53 1
  26   13   54 1
  27   14   15 1
  28   14   55 1
  29   14   56 1
  30   15   16 1
  31   15   18 1
  32   15   57 1
  33   16   17 1
  34   16   58 1
  35   16   59 1
  36   17   60 1
  37   17   61 1
  38   18   19 1
  39   18   62 1
  40   18   63 1
  41   19   20 1
  42   19   64 1
  43   20   21 ar
  44   20   25 ar
  45   21   22 ar
  46   21   65 1
  47   22   23 ar
  48   22   66 1
  49   23   24 ar
  50   23   67 1
  51   24   25 ar
  52   24   68 1
  53   26   27 am
  54   26   69 1
  55   27   28 1
  56   27   34 2
  57   28   29 ar
  58   28   33 ar
  59   29   30 ar
  60   29   43 1
  61   30   31 ar
  62   30   70 1
  63   31   32 ar
  64   31   35 1
  65   32   33 ar
  66   32   71 1
  67   33   42 1
  68   35   36 2
  69   35   37 2
  70   35   38 1
  71   38   39 1
  72   38   40 1
  73   38   41 1
  74   42   72 1
  75   42   73 1
  76   42   74 1
  77   43   44 1
  78   43   75 1
  79   43   76 1
  80   44   77 1
  81   44   78 1
  82   44   79 1

#	End of record

