#	Name: ASD01816212
#	Creating user name:	WinNT
#	Creation time:	15. 06. 2019 19:34

#	Modifying user name:	WinNT
#	Modification time:	15. 06. 2019 19:34

#	Program:	/corina/corina34_cracker 3.40 0067  02.08.2006

@<TRIPOS>MOLECULE
ASD01816212
  52   57    0    0    0
SMALL
NO_CHARGES


@<TRIPOS>ATOM
   1 C1            -0.0167     1.3813     0.0096 C.ar    
   2 C2             0.0021    -0.0041     0.0020 C.ar    
   3 C3             1.1984    -0.6909    -0.0131 C.ar    
   4 C4             2.4015     0.0059    -0.0203 C.ar    
   5 C5             2.3790     1.4106    -0.0126 C.ar    
   6 C6             1.1663     2.0916     0.0022 C.ar    
   7 N7             3.6053    -0.6772    -0.0345 N.pl3   
   8 C8             4.7970    -0.0586    -0.0420 C.2     
   9 C9             4.9000     1.3103    -0.0361 C.2     
  10 C10            3.6670     2.1301    -0.0205 C.2     
  11 C11            5.9971     2.2729    -0.0415 C.2     
  12 N12            5.4246     3.4960    -0.0304 N.am    
  13 N13            4.0323     3.3799    -0.0179 N.2     
  14 C14            6.1265     4.7082    -0.0309 C.ar    
  15 C15            5.8873     5.6525     0.9617 C.ar    
  16 C16            7.0667     4.9675    -1.0190 C.ar    
  17 C17            7.7574     6.1637    -1.0169 C.ar    
  18 C18            7.5143     7.1036    -0.0320 C.ar    
  19 C19            6.5827     6.8481     0.9573 C.ar    
  20 F20            4.9771     5.4027     1.9283 F       
  21 O21            7.1914     2.0229    -0.0529 O.2     
  22 C22            3.5779    -2.1419    -0.0411 C.3     
  23 C23            3.5555    -2.6375    -1.4641 C.ar    
  24 C24            2.3341    -2.8355    -2.1038 C.ar    
  25 C25            4.7299    -2.8807    -2.1096 C.ar    
  26 C26            4.7102    -3.3418    -3.4350 C.ar    
  27 C27            3.4691    -3.5490    -4.0861 C.ar    
  28 C28            2.2785    -3.2822    -3.3885 C.ar    
  29 C29            5.9026    -3.6048    -4.1384 C.ar    
  30 C30            5.8055    -4.0515    -5.4272 C.ar    
  31 C31            4.5526    -4.2337    -6.0067 C.ar    
  32 N32            3.4453    -3.9875    -5.3491 N.ar    
  33 Cl33           7.4511    -3.3679    -3.3902 Cl      
  34 C34            4.4670    -4.7268    -7.4282 C.3     
  35 F35            4.4212    -6.1250    -7.4348 F       
  36 F36            3.3098    -4.2195    -8.0288 F       
  37 F37            5.5904    -4.2936    -8.1405 F       
  38 H38           -0.9602     1.9068     0.0169 H       
  39 H39           -0.9289    -0.5516     0.0083 H       
  40 H40            1.2004    -1.7709    -0.0189 H       
  41 H41            1.1506     3.1715     0.0084 H       
  42 H42            5.6983    -0.6536    -0.0527 H       
  43 H43            7.2583     4.2342    -1.7884 H       
  44 H44            8.4887     6.3652    -1.7856 H       
  45 H45            8.0566     8.0375    -0.0330 H       
  46 H46            6.3950     7.5844     1.7248 H       
  47 H47            4.4656    -2.5242     0.4629 H       
  48 H48            2.6860    -2.4910     0.4793 H       
  49 H49            1.4165    -2.6316    -1.5720 H       
  50 H50            5.6708    -2.7192    -1.6046 H       
  51 H51            1.3232    -3.4346    -3.8685 H       
  52 H52            6.6996    -4.2624    -5.9951 H       
@<TRIPOS>BOND
   1    1    2 ar
   2    1    6 ar
   3    1   38 1
   4    2    3 ar
   5    2   39 1
   6    3    4 ar
   7    3   40 1
   8    4    5 ar
   9    4    7 1
  10    5    6 ar
  11    5   10 1
  12    6   41 1
  13    7    8 1
  14    7   22 1
  15    8    9 2
  16    8   42 1
  17    9   10 1
  18    9   11 1
  19   10   13 2
  20   11   12 am
  21   11   21 2
  22   12   13 1
  23   12   14 1
  24   14   15 ar
  25   14   16 ar
  26   15   20 1
  27   15   19 ar
  28   16   17 ar
  29   16   43 1
  30   17   18 ar
  31   17   44 1
  32   18   19 ar
  33   18   45 1
  34   19   46 1
  35   22   23 1
  36   22   47 1
  37   22   48 1
  38   23   25 ar
  39   23   24 ar
  40   24   28 ar
  41   24   49 1
  42   25   26 ar
  43   25   50 1
  44   26   27 ar
  45   26   29 ar
  46   27   28 ar
  47   27   32 ar
  48   28   51 1
  49   29   30 ar
  50   29   33 1
  51   30   31 ar
  52   30   52 1
  53   31   32 ar
  54   31   34 1
  55   34   35 1
  56   34   36 1
  57   34   37 1

#	End of record

