#	Name: ASD03091791
#	Creating user name:	WinNT
#	Creation time:	15. 06. 2019 20:31

#	Modifying user name:	WinNT
#	Modification time:	15. 06. 2019 20:31

#	Program:	/corina/corina34_cracker 3.40 0067  02.08.2006

@<TRIPOS>MOLECULE
ASD03091791
  31   33    0    0    0
SMALL
NO_CHARGES


@<TRIPOS>ATOM
   1 C1            -0.0121     1.4523    -0.0370 C.3     
   2 C2             0.0693    -0.0738    -0.1117 C.3     
   3 N3             0.7685    -0.5867     1.0734 N.3     
   4 C4             0.0409    -0.2522     2.3043 C.3     
   5 C5            -0.0419     1.2684     2.4530 C.3     
   6 C6             1.3746     1.8482     2.5291 C.3     
   7 N7             2.0554     1.6004     1.2509 N.am    
   8 C8             1.4050     2.0341     0.0069 C.3     
   9 C9             3.2546     0.9861     1.2201 C.2     
  10 O10            3.7545     0.6816     0.1543 O.2     
  11 C11            3.9604     0.6833     2.4788 C.2     
  12 N12            5.0561    -0.0314     2.5901 N.2     
  13 C13           -0.7609     1.8582     1.2360 C.3     
  14 O14            3.5925     1.0979     3.7048 O.3     
  15 C15            4.4871     0.6163     4.5832 C.2     
  16 C16            5.4002    -0.0895     3.8782 C.2     
  17 H17           -0.5364     1.8335    -0.9134 H       
  18 H18           -0.9375    -0.4898    -0.1478 H       
  19 H19            0.6147    -0.3648    -1.0095 H       
  20 H20            0.9196    -1.5817     1.0017 H       
  21 H21           -0.9656    -0.6676     2.2554 H       
  22 H22            0.5658    -0.6728     3.1620 H       
  23 H23           -0.5878     1.5172     3.3630 H       
  24 H24            1.3209     2.9213     2.7126 H       
  25 H25            1.9247     1.3642     3.3361 H       
  26 H26            1.9751     1.6725    -0.8488 H       
  27 H27            1.3541     3.1226    -0.0187 H       
  28 H28           -0.7805     2.9451     1.3160 H       
  29 H29           -1.7812     1.4767     1.1956 H       
  30 H30            4.4804     0.7673     5.6526 H       
  31 H31            6.2557    -0.6080     4.2853 H       
@<TRIPOS>BOND
   1    1    2 1
   2    1    8 1
   3    1   13 1
   4    1   17 1
   5    2    3 1
   6    2   18 1
   7    2   19 1
   8    3    4 1
   9    3   20 1
  10    4    5 1
  11    4   21 1
  12    4   22 1
  13    5    6 1
  14    5   13 1
  15    5   23 1
  16    6    7 1
  17    6   24 1
  18    6   25 1
  19    7    8 1
  20    7    9 am
  21    8   26 1
  22    8   27 1
  23    9   10 2
  24    9   11 1
  25   11   12 2
  26   11   14 1
  27   12   16 1
  28   13   28 1
  29   13   29 1
  30   14   15 1
  31   15   16 2
  32   15   30 1
  33   16   31 1

#	End of record

