#	Name: ASD09900014
#	Creating user name:	WinNT
#	Creation time:	15. 06. 2019 21:24

#	Modifying user name:	WinNT
#	Modification time:	15. 06. 2019 21:24

#	Program:	/corina/corina34_cracker 3.40 0067  02.08.2006

@<TRIPOS>MOLECULE
ASD09900014
  20   21    0    0    0
SMALL
NO_CHARGES


@<TRIPOS>ATOM
   1 C1            -0.0039     1.3473     0.0185 C.ar    
   2 C2             0.0145    -0.0125    -0.0916 C.ar    
   3 C3             1.2156    -0.6936    -0.2466 C.ar    
   4 C4             2.4095    -0.0097    -0.2921 C.ar    
   5 C5             2.4166     1.3783    -0.1824 C.ar    
   6 C6             1.1977     2.0664    -0.0253 C.ar    
   7 N7             3.4205     2.3175    -0.1912 N.pl3   
   8 C8             2.8584     3.5709    -0.0443 C.2     
   9 C9             1.5096     3.4449     0.0593 C.2     
  10 C10            3.6016     4.8393    -0.0056 C.2     
  11 O11            3.0026     5.8969    -0.0542 O.2     
  12 N12            4.9464     4.8299     0.0838 N.am    
  13 Pr13           6.1652     6.8663    -0.0954 Du      
  14 Pr14           6.1023     2.7770     0.4209 Du      
  15 H15           -0.9428     1.8683     0.1346 H       
  16 H16           -0.9131    -0.5646    -0.0575 H       
  17 H17            1.2125    -1.7703    -0.3319 H       
  18 H18            3.3379    -0.5482    -0.4122 H       
  19 H19            4.3677     2.1308    -0.2849 H       
  20 H20            0.8022     4.2515     0.1836 H       
@<TRIPOS>BOND
   1    1    2 ar
   2    1    6 ar
   3    1   15 1
   4    2    3 ar
   5    2   16 1
   6    3    4 ar
   7    3   17 1
   8    4    5 ar
   9    4   18 1
  10    5    7 1
  11    5    6 ar
  12    6    9 1
  13    7    8 1
  14    7   19 1
  15    8    9 2
  16    8   10 1
  17    9   20 1
  18   10   11 2
  19   10   12 am
  20   12   13 1
  21   12   14 1

#	End of record

