#	Name: ASD01916430
#	Creating user name:	WinNT
#	Creation time:	15. 06. 2019 20:07

#	Modifying user name:	WinNT
#	Modification time:	15. 06. 2019 20:07

#	Program:	/corina/corina34_cracker 3.40 0067  02.08.2006

@<TRIPOS>MOLECULE
ASD01916430
  35   37    0    0    0
SMALL
NO_CHARGES


@<TRIPOS>ATOM
   1 C1            -0.0168     1.3912     0.0097 C.ar    
   2 C2             0.0021    -0.0041     0.0020 C.ar    
   3 C3             1.2204    -0.6594    -0.0131 C.ar    
   4 C4             2.3820     0.1007    -0.0201 C.ar    
   5 C5             2.2905     1.4803    -0.0118 C.ar    
   6 N6             1.1180     2.0808     0.0026 N.ar    
   7 C7            -1.2697     2.0847     0.0194 C.1     
   8 C8            -2.2967     2.6533     0.0273 C.1     
   9 C9            -3.5846     3.3662     0.0372 C.3     
  10 C10           -3.3321     4.8752     0.0443 C.3     
  11 S11           -6.5682     7.1323     0.6534 S.3     
  12 C12           -6.6766     6.0745    -0.7513 C.2     
  13 N13           -5.5741     5.3891    -0.8535 N.2     
  14 C14           -4.6505     5.6051     0.0544 C.2     
  15 C15           -4.9523     6.5133     0.9885 C.2     
  16 C16           -7.8339     5.9799    -1.6669 C.ar    
  17 C17           -8.9639     6.7701    -1.4520 C.ar    
  18 C18          -10.0403     6.6770    -2.3099 C.ar    
  19 C19          -10.0013     5.8023    -3.3811 C.ar    
  20 C20           -8.8841     5.0162    -3.5998 C.ar    
  21 C21           -7.7985     5.1042    -2.7528 C.ar    
  22 H22           -0.9212    -0.5644     0.0082 H       
  23 H23            1.2668    -1.7384    -0.0190 H       
  24 H24            3.3484    -0.3812    -0.0315 H       
  25 H25            3.1928     2.0739    -0.0172 H       
  26 H26           -4.1555     3.0975    -0.8515 H       
  27 H27           -4.1471     3.0878     0.9284 H       
  28 H28           -2.7611     5.1440     0.9330 H       
  29 H29           -2.7695     5.1536    -0.8469 H       
  30 H30           -4.3154     6.8157     1.8066 H       
  31 H31           -8.9958     7.4527    -0.6157 H       
  32 H32          -10.9155     7.2879    -2.1447 H       
  33 H33          -10.8469     5.7327    -4.0494 H       
  34 H34           -8.8600     4.3351    -4.4376 H       
  35 H35           -6.9251     4.4933    -2.9271 H       
@<TRIPOS>BOND
   1    1    2 ar
   2    1    6 ar
   3    1    7 1
   4    2    3 ar
   5    2   22 1
   6    3    4 ar
   7    3   23 1
   8    4    5 ar
   9    4   24 1
  10    5    6 ar
  11    5   25 1
  12    7    8 3
  13    8    9 1
  14    9   10 1
  15    9   26 1
  16    9   27 1
  17   10   14 1
  18   10   28 1
  19   10   29 1
  20   11   12 1
  21   11   15 1
  22   12   13 2
  23   12   16 1
  24   13   14 1
  25   14   15 2
  26   15   30 1
  27   16   17 ar
  28   16   21 ar
  29   17   18 ar
  30   17   31 1
  31   18   19 ar
  32   18   32 1
  33   19   20 ar
  34   19   33 1
  35   20   21 ar
  36   20   34 1
  37   21   35 1

#	End of record

