#	Name: ASD08178033
#	Creating user name:	WinNT
#	Creation time:	15. 06. 2019 21:18

#	Modifying user name:	WinNT
#	Modification time:	15. 06. 2019 21:18

#	Program:	/corina/corina34_cracker 3.40 0067  02.08.2006

@<TRIPOS>MOLECULE
ASD08178033
  63   66    0    0    0
SMALL
NO_CHARGES


@<TRIPOS>ATOM
   1 C1            -0.0184     1.5028     0.0103 C.2     
   2 C2             0.0021    -0.0041     0.0020 C.3     
   3 C3            -0.0048    -0.5063    -1.4432 C.3     
   4 S4             0.0198    -2.3201    -1.4532 S.3     
   5 C5             0.0085    -2.7186    -3.2228 C.3     
   6 C6             0.0274    -4.2378    -3.4036 C.3     
   7 C7             0.0180    -4.5688    -4.8738 C.2     
   8 S8            -1.4127    -4.8168    -5.8752 S.3     
   9 C9            -0.3955    -5.1043    -7.2233 C.2     
  10 N10            0.8415    -4.9988    -6.8414 N.2     
  11 N11            1.0589    -4.7169    -5.6302 N.2     
  12 N12           -0.8233    -5.4013    -8.5129 N.am    
  13 C13            0.0799    -5.6074    -9.4918 C.2     
  14 O14            1.2657    -5.5339    -9.2481 O.2     
  15 C15           -0.3836    -5.9293   -10.8891 C.3     
  16 C16            0.8137    -6.1123   -11.7859 C.ar    
  17 C17            1.3812    -7.3640   -11.9343 C.ar    
  18 C18            1.3409    -5.0295   -12.4644 C.ar    
  19 C19            2.4391    -5.1974   -13.2870 C.ar    
  20 C20            3.0104    -6.4479   -13.4306 C.ar    
  21 C21            2.4794    -7.5319   -12.7568 C.ar    
  22 S22            1.3918     2.5625     0.0025 S.3     
  23 N23           -1.0746     2.2524     0.0188 N.2     
  24 N24           -0.8817     3.5001     0.0248 N.2     
  25 C25            0.3474     3.9203     0.0198 C.2     
  26 N26            0.7489     5.2518     0.0256 N.am    
  27 C27           -0.1740     6.2339     0.0369 C.2     
  28 O28           -1.3547     5.9565     0.0420 O.2     
  29 C29            0.2610     7.6767     0.0433 C.3     
  30 C30           -0.9542     8.5678     0.0557 C.ar    
  31 C31           -1.1636     9.4655    -0.9744 C.ar    
  32 C32           -1.8625     8.4835     1.0943 C.ar    
  33 C33           -2.9773     9.3008     1.1057 C.ar    
  34 C34           -3.1835    10.2028     0.0787 C.ar    
  35 C35           -2.2783    10.2829    -0.9630 C.ar    
  36 C36            1.1060     7.9492     1.2893 C.3     
  37 O37            2.3148     7.1901     1.2205 O.3     
  38 H38            0.9018    -0.3580     0.5054 H       
  39 H39           -0.8780    -0.3822     0.5223 H       
  40 H40           -0.9045    -0.1523    -1.9466 H       
  41 H41            0.8752    -0.1281    -1.9634 H       
  42 H42           -0.8915    -2.3093    -3.6817 H       
  43 H43            0.8882    -2.2851    -3.6985 H       
  44 H44            0.9275    -4.6471    -2.9448 H       
  45 H45           -0.8522    -4.6713    -2.9279 H       
  46 H46           -1.7717    -5.4601    -8.7078 H       
  47 H47           -0.9705    -6.8476   -10.8747 H       
  48 H48           -0.9979    -5.1113   -11.2656 H       
  49 H49            0.9667    -8.2107   -11.4073 H       
  50 H50            0.8946    -4.0525   -12.3522 H       
  51 H51            2.8507    -4.3515   -13.8177 H       
  52 H52            3.8682    -6.5792   -14.0736 H       
  53 H53            2.9257    -8.5089   -12.8690 H       
  54 H54            1.6932     5.4736     0.0216 H       
  55 H55            0.8527     7.8817    -0.8489 H       
  56 H56           -0.4561     9.5285    -1.7880 H       
  57 H57           -1.7014     7.7787     1.8967 H       
  58 H58           -3.6873     9.2344     1.9168 H       
  59 H59           -4.0546    10.8412     0.0874 H       
  60 H60           -2.4395    10.9876    -1.7654 H       
  61 H61            1.3462     9.0111     1.3404 H       
  62 H62            0.5457     7.6603     2.1786 H       
  63 H63            2.9007     7.3139     1.9797 H       
@<TRIPOS>BOND
   1    1    2 1
   2    1   22 1
   3    1   23 2
   4    2    3 1
   5    2   38 1
   6    2   39 1
   7    3    4 1
   8    3   40 1
   9    3   41 1
  10    4    5 1
  11    5    6 1
  12    5   42 1
  13    5   43 1
  14    6    7 1
  15    6   44 1
  16    6   45 1
  17    7    8 1
  18    7   11 2
  19    8    9 1
  20    9   10 2
  21    9   12 1
  22   10   11 1
  23   12   13 am
  24   12   46 1
  25   13   14 2
  26   13   15 1
  27   15   16 1
  28   15   47 1
  29   15   48 1
  30   16   17 ar
  31   16   18 ar
  32   17   21 ar
  33   17   49 1
  34   18   19 ar
  35   18   50 1
  36   19   20 ar
  37   19   51 1
  38   20   21 ar
  39   20   52 1
  40   21   53 1
  41   22   25 1
  42   23   24 1
  43   24   25 2
  44   25   26 1
  45   26   27 am
  46   26   54 1
  47   27   28 2
  48   27   29 1
  49   29   30 1
  50   29   36 1
  51   29   55 1
  52   30   31 ar
  53   30   32 ar
  54   31   35 ar
  55   31   56 1
  56   32   33 ar
  57   32   57 1
  58   33   34 ar
  59   33   58 1
  60   34   35 ar
  61   34   59 1
  62   35   60 1
  63   36   37 1
  64   36   61 1
  65   36   62 1
  66   37   63 1

#	End of record

