#	Name: ASD02198798
#	Creating user name:	WinNT
#	Creation time:	15. 06. 2019 20:20

#	Modifying user name:	WinNT
#	Modification time:	15. 06. 2019 20:20

#	Program:	/corina/corina34_cracker 3.40 0067  02.08.2006

@<TRIPOS>MOLECULE
ASD02198798
  49   53    0    0    0
SMALL
NO_CHARGES


@<TRIPOS>ATOM
   1 C1            -0.0433     1.5019    -0.1149 C.2     
   2 C2            -0.0731     0.1622     0.0976 C.2     
   3 N3             1.0712    -0.5395     0.2599 N.pl3   
   4 N4             2.2357    -0.0048     0.2263 N.2     
   5 C5             2.4073     1.2846     0.0281 C.2     
   6 C6             1.2216     2.1358    -0.1604 C.2     
   7 C7             0.9796    -1.9188     0.4760 C.ar    
   8 C8             1.5800    -2.4911     1.5942 C.ar    
   9 C9             1.4850    -3.8638     1.8029 C.ar    
  10 C10            0.7931    -4.6548     0.8969 C.ar    
  11 C11            0.1985    -4.0820    -0.2121 C.ar    
  12 C12            0.2845    -2.7193    -0.4217 C.ar    
  13 C13            3.7643     1.8668    -0.0041 C.2     
  14 N14            4.3066     2.6068    -1.0170 N.pl3   
  15 N15            5.6085     2.9580    -0.6391 N.2     
  16 C16            5.8521     2.4582     0.5462 C.2     
  17 C17            4.7198     1.7711     0.9838 C.2     
  18 C18            3.6738     2.9518    -2.2181 C.ar    
  19 C19            3.8079     4.2351    -2.7316 C.ar    
  20 C20            3.1827     4.5722    -3.9160 C.ar    
  21 C21            2.4237     3.6334    -4.5904 C.ar    
  22 C22            2.2878     2.3548    -4.0815 C.ar    
  23 C23            2.9156     2.0097    -2.9007 C.ar    
  24 O24            1.3247     3.3389    -0.3482 O.2     
  25 N25            2.0881    -4.4470     2.9275 N.pl3   
  26 N26            2.8132    -3.7714     3.9175 N.2     
  27 C27            2.0675    -5.7596     3.2505 C.2     
  28 C28            2.7611    -5.9112     4.4028 C.2     
  29 C29            3.2177    -4.6498     4.7997 C.2     
  30 O30            2.2572    -1.7119     2.4788 O.3     
  31 C31            1.5090    -1.1643     3.5662 C.3     
  32 H32           -0.9546     2.0656    -0.2494 H       
  33 H33           -1.0230    -0.3502     0.1380 H       
  34 H34            0.7193    -5.7202     1.0580 H       
  35 H35           -0.3387    -4.7016    -0.9149 H       
  36 H36           -0.1818    -2.2768    -1.2895 H       
  37 H37            6.7757     2.5637     1.0959 H       
  38 H38            4.6138     1.2514     1.9246 H       
  39 H39            4.4003     4.9688    -2.2051 H       
  40 H40            3.2863     5.5701    -4.3157 H       
  41 H41            1.9357     3.8994    -5.5165 H       
  42 H42            1.6938     1.6241    -4.6102 H       
  43 H43            2.8091     1.0110    -2.5037 H       
  44 H44            1.5840    -6.5460     2.6899 H       
  45 H45            2.9297    -6.8413     4.9252 H       
  46 H46            3.8036    -4.4375     5.6818 H       
  47 H47            2.1674    -0.5646     4.1947 H       
  48 H48            0.7078    -0.5364     3.1762 H       
  49 H49            1.0810    -1.9741     4.1571 H       
@<TRIPOS>BOND
   1    1    2 2
   2    1    6 1
   3    1   32 1
   4    2    3 1
   5    2   33 1
   6    3    4 1
   7    3    7 1
   8    4    5 2
   9    5    6 1
  10    5   13 1
  11    6   24 2
  12    7    8 ar
  13    7   12 ar
  14    8    9 ar
  15    8   30 1
  16    9   10 ar
  17    9   25 1
  18   10   11 ar
  19   10   34 1
  20   11   12 ar
  21   11   35 1
  22   12   36 1
  23   13   14 1
  24   13   17 2
  25   14   15 1
  26   14   18 1
  27   15   16 2
  28   16   17 1
  29   16   37 1
  30   17   38 1
  31   18   19 ar
  32   18   23 ar
  33   19   20 ar
  34   19   39 1
  35   20   21 ar
  36   20   40 1
  37   21   22 ar
  38   21   41 1
  39   22   23 ar
  40   22   42 1
  41   23   43 1
  42   25   26 1
  43   25   27 1
  44   26   29 2
  45   27   28 2
  46   27   44 1
  47   28   29 1
  48   28   45 1
  49   29   46 1
  50   30   31 1
  51   31   47 1
  52   31   48 1
  53   31   49 1

#	End of record

