#	Name: ASD02500657
#	Creating user name:	WinNT
#	Creation time:	15. 06. 2019 20:23

#	Modifying user name:	WinNT
#	Modification time:	15. 06. 2019 20:23

#	Program:	/corina/corina34_cracker 3.40 0067  02.08.2006

@<TRIPOS>MOLECULE
ASD02500657
  67   71    0    0    0
SMALL
NO_CHARGES


@<TRIPOS>ATOM
   1 N1            -3.5758     5.5413    -0.1383 N.ar    
   2 C2            -4.6972     6.1716    -0.3898 C.ar    
   3 C3            -5.8484     5.9487     0.3629 C.ar    
   4 C4            -5.8261     5.0530     1.3936 C.ar    
   5 C5            -4.6201     4.3776     1.6606 C.ar    
   6 C6            -4.5207     3.4433     2.7037 C.ar    
   7 C7            -3.3361     2.8111     2.9303 C.ar    
   8 C8            -2.2202     3.0794     2.1406 C.ar    
   9 C9            -2.2811     3.9791     1.1211 C.ar    
  10 C10           -3.4863     4.6521     0.8560 C.ar    
  11 S11           -0.8543     4.2998     0.1382 S.o2    
  12 O12           -0.7084     5.7126     0.0917 O.2     
  13 O13            0.1634     3.4286     0.6120 O.2     
  14 N14           -1.2037     3.8147    -1.4061 N.am    
  15 C15           -1.3877     2.4652    -1.6860 C.ar    
  16 C16           -0.9932     1.9512    -2.9184 C.ar    
  17 C17           -1.1739     0.6162    -3.1984 C.ar    
  18 C18           -1.7544    -0.2244    -2.2438 C.ar    
  19 C19           -2.1494     0.2947    -1.0076 C.ar    
  20 C20           -1.9608     1.6297    -0.7314 C.ar    
  21 C21           -0.3680     2.8580    -3.9469 C.3     
  22 C22           -1.9501    -1.6560    -2.5410 C.2     
  23 O23           -2.3243    -2.0022    -3.6449 O.2     
  24 N24           -1.7141    -2.5803    -1.5889 N.am    
  25 C25           -1.8129    -4.0165    -1.8900 C.3     
  26 C26           -0.5280    -4.7031    -1.4148 C.3     
  27 N27           -0.2979    -4.3793    -0.0005 N.3     
  28 C28           -0.0842    -2.9383     0.1884 C.3     
  29 C29           -1.3449    -2.1795    -0.2227 C.3     
  30 C30            0.8270    -5.1537     0.5406 C.3     
  31 C31            0.4585    -6.6385     0.5665 C.3     
  32 C32            1.6494    -7.4683     1.0772 C.3     
  33 C33            1.1714    -8.1830     2.3580 C.3     
  34 C34           -0.3690    -8.2425     2.2076 C.3     
  35 C35           -0.7016    -6.8778     1.5548 C.3     
  36 H36           -4.7297     6.8829    -1.2019 H       
  37 H37           -6.7574     6.4841     0.1317 H       
  38 H38           -6.7089     4.8682     1.9876 H       
  39 H39           -5.3787     3.2275     3.3232 H       
  40 H40           -3.2605     2.0925     3.7330 H       
  41 H41           -1.2917     2.5654     2.3408 H       
  42 H42           -1.2800     4.4719    -2.1154 H       
  43 H43           -0.8680     0.2182    -4.1546 H       
  44 H44           -2.5981    -0.3522    -0.2682 H       
  45 H45           -2.2614     2.0304     0.2254 H       
  46 H46            0.7134     2.8705    -3.8109 H       
  47 H47           -0.6044     2.4918    -4.9459 H       
  48 H48           -0.7608     3.8678    -3.8277 H       
  49 H49           -2.6700    -4.4420    -1.3679 H       
  50 H50           -1.9279    -4.1583    -2.9646 H       
  51 H51           -0.6286    -5.7824    -1.5291 H       
  52 H52            0.3143    -4.3508    -2.0102 H       
  53 H53            0.1371    -2.7377     1.2367 H       
  54 H54            0.7519    -2.6105    -0.4294 H       
  55 H55           -1.1507    -1.1073    -0.1956 H       
  56 H56           -2.1562    -2.4249     0.4627 H       
  57 H57            1.7046    -5.0082    -0.0893 H       
  58 H58            1.0467    -4.8162     1.5535 H       
  59 H59            0.1735    -6.9696    -0.4321 H       
  60 H60            1.9418    -8.2028     0.3268 H       
  61 H61            2.4899    -6.8133     1.3066 H       
  62 H62            1.5885    -9.1886     2.4121 H       
  63 H63            1.4465    -7.6070     3.2416 H       
  64 H64           -0.6619    -9.0646     1.5546 H       
  65 H65           -0.8492    -8.3318     3.1820 H       
  66 H66           -0.7290    -6.0910     2.3086 H       
  67 H67           -1.6513    -6.9309     1.0226 H       
@<TRIPOS>BOND
   1    1    2 ar
   2    1   10 ar
   3    2    3 ar
   4    2   36 1
   5    3    4 ar
   6    3   37 1
   7    4    5 ar
   8    4   38 1
   9    5    6 ar
  10    5   10 ar
  11    6    7 ar
  12    6   39 1
  13    7    8 ar
  14    7   40 1
  15    8    9 ar
  16    8   41 1
  17    9   10 ar
  18    9   11 1
  19   11   12 2
  20   11   13 2
  21   11   14 am
  22   14   15 1
  23   14   42 1
  24   15   16 ar
  25   15   20 ar
  26   16   17 ar
  27   16   21 1
  28   17   18 ar
  29   17   43 1
  30   18   19 ar
  31   18   22 1
  32   19   20 ar
  33   19   44 1
  34   20   45 1
  35   21   46 1
  36   21   47 1
  37   21   48 1
  38   22   23 2
  39   22   24 am
  40   24   25 1
  41   24   29 1
  42   25   26 1
  43   25   49 1
  44   25   50 1
  45   26   27 1
  46   26   51 1
  47   26   52 1
  48   27   28 1
  49   27   30 1
  50   28   29 1
  51   28   53 1
  52   28   54 1
  53   29   55 1
  54   29   56 1
  55   30   31 1
  56   30   57 1
  57   30   58 1
  58   31   32 1
  59   31   35 1
  60   31   59 1
  61   32   33 1
  62   32   60 1
  63   32   61 1
  64   33   34 1
  65   33   62 1
  66   33   63 1
  67   34   35 1
  68   34   64 1
  69   34   65 1
  70   35   66 1
  71   35   67 1

#	End of record

