#	Name: ASD05720226
#	Creating user name:	WinNT
#	Creation time:	15. 06. 2019 21:02

#	Modifying user name:	WinNT
#	Modification time:	15. 06. 2019 21:02

#	Program:	/corina/corina34_cracker 3.40 0067  02.08.2006

@<TRIPOS>MOLECULE
ASD05720226
  61   65    0    0    0
SMALL
NO_CHARGES


@<TRIPOS>ATOM
   1 C1             0.5119     1.0237     1.1164 C.2     
   2 N2             0.4122    -0.2391     0.6808 N.am    
   3 C3             1.6581    -0.6134    -0.0048 C.3     
   4 C4             2.5297     0.6534     0.0955 C.3     
   5 N5             1.6824     1.6071     0.8271 N.am    
   6 O6            -0.3811     1.5906     1.7157 O.2     
   7 C7             1.3818    -0.9606    -1.4691 C.3     
   8 C8             0.5224    -2.2245    -1.5402 C.3     
   9 C9             0.6398     0.1989    -2.1369 C.3     
  10 C10            2.0587     2.9775     1.1828 C.3     
  11 C11            2.7352     2.9806     2.5552 C.3     
  12 C12            3.1282     4.4119     2.9267 C.3     
  13 O13            3.8625     4.4012     4.1526 O.3     
  14 O14            1.8298     2.4660     3.5337 O.3     
  15 C15           -1.6777    -3.1432     0.6616 C.2     
  16 N16           -0.6243    -2.3358     0.5052 N.2     
  17 C17           -0.6921    -1.0636     0.8498 C.2     
  18 C18           -1.8851    -0.5415     1.3899 C.2     
  19 C19           -2.9529    -1.3559     1.5495 C.2     
  20 N20           -2.8521    -2.6692     1.1832 N.pl3   
  21 N21           -3.7635    -3.7303     1.2264 N.2     
  22 C22           -3.1917    -4.8117     0.7572 C.2     
  23 C23           -1.8787    -4.5017     0.3809 C.2     
  24 C24           -0.8887    -5.4340    -0.2021 C.ar    
  25 C25           -0.6495    -6.6683     0.4061 C.ar    
  26 C26            0.2709    -7.5357    -0.1361 C.ar    
  27 C27            0.9660    -7.1817    -1.2952 C.ar    
  28 C28            0.7265    -5.9469    -1.9034 C.ar    
  29 C29           -0.1978    -5.0820    -1.3637 C.ar    
  30 C30            1.9546    -8.1127    -1.8773 C.2     
  31 N31            2.2691    -9.2981    -1.4023 N.2     
  32 C32            3.1993    -9.8554    -2.1866 C.2     
  33 C33            3.4819    -8.9974    -3.1875 C.2     
  34 N34            2.6937    -7.8922    -3.0033 N.pl3   
  35 H35            2.1382    -1.4495     0.5036 H       
  36 H36            3.4427     0.4464     0.6538 H       
  37 H37            2.7657     1.0352    -0.8978 H       
  38 H38            2.3258    -1.1336    -1.9858 H       
  39 H39           -0.4947    -1.9904    -1.2258 H       
  40 H40            0.5094    -2.5979    -2.5641 H       
  41 H41            0.9403    -2.9855    -0.8812 H       
  42 H42            1.2520     1.0993    -2.0863 H       
  43 H43            0.4430    -0.0485    -3.1801 H       
  44 H44           -0.3042     0.3718    -1.6202 H       
  45 H45            2.7493     3.3700     0.4365 H       
  46 H46            1.1662     3.6023     1.2162 H       
  47 H47            3.6277     2.3558     2.5218 H       
  48 H48            3.7473     4.8355     2.1360 H       
  49 H49            2.2289     5.0160     3.0471 H       
  50 H50            4.1447     5.2771     4.4496 H       
  51 H51            1.0113     2.9740     3.6179 H       
  52 H52           -1.9455     0.4988     1.6738 H       
  53 H53           -3.8748    -0.9732     1.9620 H       
  54 H54           -3.6577    -5.7821     0.6710 H       
  55 H55           -1.1866    -6.9418     1.3023 H       
  56 H56            0.4561    -8.4901     0.3344 H       
  57 H57            1.2640    -5.6728    -2.7991 H       
  58 H58           -0.3862    -4.1293    -1.8363 H       
  59 H59            3.6477   -10.8272    -2.0422 H       
  60 H60            4.1921    -9.1537    -3.9860 H       
  61 H61            2.6672    -7.1021    -3.5655 H       
@<TRIPOS>BOND
   1    1    2 am
   2    1    5 am
   3    1    6 2
   4    2    3 1
   5    2   17 1
   6    3    4 1
   7    3    7 1
   8    3   35 1
   9    4    5 1
  10    4   36 1
  11    4   37 1
  12    5   10 1
  13    7    8 1
  14    7    9 1
  15    7   38 1
  16    8   39 1
  17    8   40 1
  18    8   41 1
  19    9   42 1
  20    9   43 1
  21    9   44 1
  22   10   11 1
  23   10   45 1
  24   10   46 1
  25   11   12 1
  26   11   14 1
  27   11   47 1
  28   12   13 1
  29   12   48 1
  30   12   49 1
  31   13   50 1
  32   14   51 1
  33   15   16 1
  34   15   20 1
  35   15   23 2
  36   16   17 2
  37   17   18 1
  38   18   19 2
  39   18   52 1
  40   19   20 1
  41   19   53 1
  42   20   21 1
  43   21   22 2
  44   22   23 1
  45   22   54 1
  46   23   24 1
  47   24   25 ar
  48   24   29 ar
  49   25   26 ar
  50   25   55 1
  51   26   27 ar
  52   26   56 1
  53   27   28 ar
  54   27   30 1
  55   28   29 ar
  56   28   57 1
  57   29   58 1
  58   30   31 2
  59   30   34 1
  60   31   32 1
  61   32   33 2
  62   32   59 1
  63   33   34 1
  64   33   60 1
  65   34   61 1

#	End of record

