#	Name: ASD05430262
#	Creating user name:	WinNT
#	Creation time:	15. 06. 2019 21:00

#	Modifying user name:	WinNT
#	Modification time:	15. 06. 2019 21:00

#	Program:	/corina/corina34_cracker 3.40 0067  02.08.2006

@<TRIPOS>MOLECULE
ASD05430262
  79   85    0    0    0
SMALL
NO_CHARGES


@<TRIPOS>ATOM
   1 C1             0.9106     0.3896    -1.3106 C.ar    
   2 C2             0.1127     0.2547    -0.1773 C.ar    
   3 C3             0.4864     0.8724     1.0070 C.ar    
   4 C4             1.6478     1.6192     1.0599 C.ar    
   5 C5             2.4396     1.7534    -0.0659 C.ar    
   6 C6             2.0740     1.1404    -1.2495 C.ar    
   7 C7             4.8827     0.7580     1.2553 C.3     
   8 C8             4.4652     2.2323     1.2798 C.3     
   9 C9             3.7045     2.5700    -0.0021 C.3     
  10 C10            3.6425    -0.1204     1.4468 C.3     
  11 C11            2.9389     0.0408     2.8011 C.3     
  12 N12            2.8167     1.4732     3.0743 N.pl3   
  13 C13            3.5676     2.4671     2.4743 C.2     
  14 N14            3.3984     3.5864     3.0865 N.2     
  15 N15           -1.0669    -0.5041    -0.2334 N.pl3   
  16 C16           -1.3975    -1.5573     0.5790 C.2     
  17 C17           -2.6088    -1.9915     0.1814 C.2     
  18 N18           -3.0109    -1.2278    -0.8451 N.2     
  19 C19           -2.0984    -0.3295    -1.0991 C.2     
  20 C20           -3.3790    -3.1373     0.7854 C.3     
  21 C21            1.8948     2.1427     3.9983 C.3     
  22 O22            2.5121     3.4333     4.1842 O.3     
  23 C23            0.5291     2.2882     3.3781 C.ar    
  24 O24            0.5522    -0.2182    -2.4726 O.3     
  25 C25            1.8117     1.3852     5.3250 C.3     
  26 C26           -0.4787     1.4024     3.7112 C.ar    
  27 C27           -0.9689     3.4456     1.9120 C.ar    
  28 C28            0.2833     3.3109     2.4810 C.ar    
  29 C29           -1.9774     2.5555     2.2404 C.ar    
  30 F30           -3.2019     2.6862     1.6848 F       
  31 C31           -1.7315     1.5348     3.1431 C.ar    
  32 C32            4.5831     2.2472    -1.2155 C.3     
  33 C33            5.7084     3.1136     1.3990 C.3     
  34 C34            6.6611     2.8103     0.2376 C.3     
  35 C35            5.9023     2.9712    -1.0610 C.2     
  36 O36            6.3386     3.6599    -1.9519 O.2     
  37 O37            5.3237     4.4891     1.3530 O.3     
  38 C38            6.1854     5.3586     2.0902 C.3     
  39 C39            1.3573     0.0527    -3.6217 C.3     
  40 C40            0.7336    -0.6131    -4.8499 C.3     
  41 C41            2.7715    -0.4010     0.2239 C.3     
  42 C42            3.6479    -1.5096     0.8115 C.3     
  43 H43           -0.1304     0.7699     1.8876 H       
  44 H44            1.9377     2.0997     1.9827 H       
  45 H45            2.6947     1.2467    -2.1268 H       
  46 H46            5.3480     0.5272     0.2970 H       
  47 H47            5.5920     0.5670     2.0607 H       
  48 H48            3.4531     3.6306    -0.0069 H       
  49 H49            1.9486    -0.4127     2.7588 H       
  50 H50            3.5305    -0.4350     3.5832 H       
  51 H51           -0.8008    -1.9619     1.3832 H       
  52 H52           -2.1518     0.4222    -1.8728 H       
  53 H53           -4.0135    -2.7647     1.5896 H       
  54 H54           -3.9992    -3.6022     0.0190 H       
  55 H55           -2.6815    -3.8737     1.1844 H       
  56 H56            2.8001     1.3442     5.7826 H       
  57 H57            1.1224     1.8997     5.9946 H       
  58 H58            1.4532     0.3720     5.1431 H       
  59 H59           -0.2867     0.6063     4.4153 H       
  60 H60           -1.1605     4.2444     1.2108 H       
  61 H61            1.0701     4.0050     2.2249 H       
  62 H62           -2.5184     0.8423     3.4030 H       
  63 H63            4.7590     1.1726    -1.2646 H       
  64 H64            4.0865     2.5816    -2.1263 H       
  65 H65            6.2106     2.9078     2.3443 H       
  66 H66            7.4996     3.5065     0.2605 H       
  67 H67            7.0284     1.7876     0.3228 H       
  68 H68            7.1967     5.2939     1.6887 H       
  69 H69            5.8257     6.3840     2.0054 H       
  70 H70            6.1910     5.0611     3.1388 H       
  71 H71            1.4126     1.1296    -3.7809 H       
  72 H72            2.3606    -0.3433    -3.4639 H       
  73 H73           -0.3000    -0.2838    -4.9561 H       
  74 H74            1.2972    -0.3338    -5.7401 H       
  75 H75            0.7593    -1.6960    -4.7286 H       
  76 H76            1.6951    -0.4749     0.3787 H       
  77 H77            3.0813     0.0355    -0.7256 H       
  78 H78            4.5342    -1.8022     0.2486 H       
  79 H79            3.1480    -2.3127     1.3530 H       
@<TRIPOS>BOND
   1    1    2 ar
   2    1    6 ar
   3    1   24 1
   4    2    3 ar
   5    2   15 1
   6    3    4 ar
   7    3   43 1
   8    4    5 ar
   9    4   44 1
  10    5    6 ar
  11    5    9 1
  12    6   45 1
  13    7    8 1
  14    7   10 1
  15    7   46 1
  16    7   47 1
  17    8    9 1
  18    8   33 1
  19    8   13 1
  20    9   32 1
  21    9   48 1
  22   10   11 1
  23   10   41 1
  24   10   42 1
  25   11   12 1
  26   11   49 1
  27   11   50 1
  28   12   13 1
  29   12   21 1
  30   13   14 2
  31   14   22 1
  32   15   16 1
  33   15   19 1
  34   16   17 2
  35   16   51 1
  36   17   18 1
  37   17   20 1
  38   18   19 2
  39   19   52 1
  40   20   53 1
  41   20   54 1
  42   20   55 1
  43   21   22 1
  44   21   23 1
  45   21   25 1
  46   23   26 ar
  47   23   28 ar
  48   24   39 1
  49   25   56 1
  50   25   57 1
  51   25   58 1
  52   26   31 ar
  53   26   59 1
  54   27   28 ar
  55   27   29 ar
  56   27   60 1
  57   28   61 1
  58   29   30 1
  59   29   31 ar
  60   31   62 1
  61   32   35 1
  62   32   63 1
  63   32   64 1
  64   33   34 1
  65   33   37 1
  66   33   65 1
  67   34   35 1
  68   34   66 1
  69   34   67 1
  70   35   36 2
  71   37   38 1
  72   38   68 1
  73   38   69 1
  74   38   70 1
  75   39   40 1
  76   39   71 1
  77   39   72 1
  78   40   73 1
  79   40   74 1
  80   40   75 1
  81   41   42 1
  82   41   76 1
  83   41   77 1
  84   42   78 1
  85   42   79 1

#	End of record

