#	Name: ASD01230368
#	Creating user name:	WinNT
#	Creation time:	15. 06. 2019 19:14

#	Modifying user name:	WinNT
#	Modification time:	15. 06. 2019 19:14

#	Program:	/corina/corina34_cracker 3.40 0067  02.08.2006

@<TRIPOS>MOLECULE
ASD01230368
  45   48    0    0    0
SMALL
NO_CHARGES


@<TRIPOS>ATOM
   1 S1            -1.6216     2.7528     1.5545 S.o2    
   2 N2            -1.3527     1.2758     0.8760 N.am    
   3 C3            -0.2280     0.8822     0.4271 C.2     
   4 N4             0.9282     1.6183     0.4817 N.pl3   
   5 C5             1.1089     2.6848     1.4602 C.3     
   6 C6            -0.0652     3.6617     1.3698 C.3     
   7 C7            -0.0962    -0.4912    -0.2111 C.3     
   8 C8             1.2811    -1.0401     0.1695 C.3     
   9 C9             2.3966    -0.1594    -0.3775 C.3     
  10 C10            1.9795     1.3019    -0.4909 C.3     
  11 C11           -1.1745    -1.4049     0.3117 C.ar    
  12 C12           -2.0848    -1.9693    -0.5628 C.ar    
  13 C13           -3.0739    -2.8076    -0.0863 C.ar    
  14 C14           -3.1535    -3.0831     1.2713 C.ar    
  15 C15           -2.2388    -2.5154     2.1468 C.ar    
  16 C16           -1.2485    -1.6820     1.6644 C.ar    
  17 O17           -4.1258    -3.9070     1.7427 O.3     
  18 C18           -4.9318    -4.5248     0.8395 C.ar    
  19 C19           -4.5690    -5.7560     0.3126 C.ar    
  20 C20           -5.3896    -6.3823    -0.6053 C.ar    
  21 C21           -6.5725    -5.7824    -0.9996 C.ar    
  22 C22           -6.9360    -4.5545    -0.4756 C.ar    
  23 C23           -6.1214    -3.9280     0.4475 C.ar    
  24 Cl24          -7.6018    -6.5713    -2.1538 Cl      
  25 O25           -2.6322     3.3299     0.7392 O.2     
  26 O26           -1.8682     2.4654     2.9241 O.2     
  27 H27            1.1492     2.2564     2.4616 H       
  28 H28            2.0390     3.2142     1.2533 H       
  29 H29           -0.0487     4.1611     0.4011 H       
  30 H30            0.0182     4.4045     2.1631 H       
  31 H31           -0.1748    -0.4055    -1.2948 H       
  32 H32            1.3606    -1.0835     1.2557 H       
  33 H33            1.3891    -2.0461    -0.2360 H       
  34 H34            3.2592    -0.2300     0.2851 H       
  35 H35            2.6814    -0.5229    -1.3648 H       
  36 H36            1.6064     1.4917    -1.4973 H       
  37 H37            2.8448     1.9377    -0.3037 H       
  38 H38           -2.0226    -1.7542    -1.6194 H       
  39 H39           -3.7848    -3.2479    -0.7698 H       
  40 H40           -2.2989    -2.7280     3.2040 H       
  41 H41           -0.5338    -1.2432     2.3448 H       
  42 H42           -3.6454    -6.2242     0.6195 H       
  43 H43           -5.1075    -7.3406    -1.0158 H       
  44 H44           -7.8595    -4.0878    -0.7849 H       
  45 H45           -6.4080    -2.9719     0.8601 H       
@<TRIPOS>BOND
   1    1    2 am
   2    1    6 1
   3    1   25 2
   4    1   26 2
   5    2    3 2
   6    3    4 1
   7    3    7 1
   8    4    5 1
   9    4   10 1
  10    5    6 1
  11    5   27 1
  12    5   28 1
  13    6   29 1
  14    6   30 1
  15    7    8 1
  16    7   11 1
  17    7   31 1
  18    8    9 1
  19    8   32 1
  20    8   33 1
  21    9   10 1
  22    9   34 1
  23    9   35 1
  24   10   36 1
  25   10   37 1
  26   11   12 ar
  27   11   16 ar
  28   12   13 ar
  29   12   38 1
  30   13   14 ar
  31   13   39 1
  32   14   15 ar
  33   14   17 1
  34   15   16 ar
  35   15   40 1
  36   16   41 1
  37   17   18 1
  38   18   19 ar
  39   18   23 ar
  40   19   20 ar
  41   19   42 1
  42   20   21 ar
  43   20   43 1
  44   21   22 ar
  45   21   24 1
  46   22   23 ar
  47   22   44 1
  48   23   45 1

#	End of record

