#	Name: ASD00230017
#	Creating user name:	WinNT
#	Creation time:	15. 06. 2019 18:33

#	Modifying user name:	WinNT
#	Modification time:	15. 06. 2019 18:33

#	Program:	/corina/corina34_cracker 3.40 0067  02.08.2006

@<TRIPOS>MOLECULE
ASD00230017
  52   51    0    0    0
SMALL
NO_CHARGES


@<TRIPOS>ATOM
   1 N1             0.5915     0.8712     1.5905 Du      
   2 C2             0.9436     2.3171     1.4027 C.3     
   3 C3             2.4621     2.4609     1.2829 C.3     
   4 O4             2.9157     1.8079     0.0679 O.3     
   5 C5             4.2330     1.8432    -0.1875 C.2     
   6 C6             4.7775     1.1868    -1.4299 C.3     
   7 O7             4.9822     2.4013     0.5787 O.2     
   8 C8             1.1083     0.9281     2.9975 C.3     
   9 C9            -0.8476     1.1847     1.3068 C.3     
  10 C10            0.2395    -0.5748     1.7782 C.3     
  11 C11            6.2955     1.3712    -1.4807 C.3     
  12 C12            6.8400     0.7148    -2.7232 C.2     
  13 O13            6.0908     0.1567    -3.4894 O.2     
  14 O14            8.1573     0.7501    -2.9786 O.3     
  15 C15            8.6109     0.0971    -4.1935 C.3     
  16 C16           10.1294     0.2409    -4.3134 C.3     
  17 N17           10.7924    -0.5088    -3.1961 Du      
  18 C18           10.4751    -1.8064    -3.8785 C.3     
  19 C19           12.0834     0.1965    -3.4888 C.3     
  20 C20           11.4553    -1.2586    -2.0788 C.3     
  21 H21            1.2680     0.5995     0.7667 H       
  22 H22            0.4704     2.6913     0.4948 H       
  23 H23            0.5907     2.8912     2.2595 H       
  24 H24            2.7252     3.5181     1.2471 H       
  25 H25            2.9402     1.9964     2.1453 H       
  26 H26            4.5412     0.1229    -1.4121 H       
  27 H27            4.3262     1.6445    -2.3102 H       
  28 H28            0.3281     0.6005     3.6846 H       
  29 H29            1.9748     0.2738     3.0931 H       
  30 H30            1.3974     1.9513     3.2373 H       
  31 H31           -1.2146     1.9024     2.0405 H       
  32 H32           -0.9367     1.6096     0.3069 H       
  33 H33           -1.4374     0.2700     1.3667 H       
  34 H34           -0.1998    -0.9640     0.8597 H       
  35 H35            1.1402    -1.1399     2.0181 H       
  36 H36           -0.4778    -0.6712     2.5933 H       
  37 H37            6.5318     2.4352    -1.4986 H       
  38 H38            6.7468     0.9135    -0.6004 H       
  39 H39            8.3477    -0.9600    -4.1578 H       
  40 H40            8.1328     0.5616    -5.0560 H       
  41 H41           10.4586    -0.1660    -5.2695 H       
  42 H42           10.4003     1.2951    -4.2545 H       
  43 H43           10.0782    -0.0746    -2.4809 H       
  44 H44           11.4025    -2.3223    -4.1273 H       
  45 H45            9.8792    -2.4308    -3.2129 H       
  46 H46            9.9131    -1.6089    -4.7914 H       
  47 H47           12.3939    -0.0232    -4.5103 H       
  48 H48           11.9441     1.2715    -3.3746 H       
  49 H49           12.8503    -0.1463    -2.7942 H       
  50 H50           10.7314    -1.9234    -1.6076 H       
  51 H51           12.2830    -1.8459    -2.4762 H       
  52 H52           11.8332    -0.5513    -1.3406 H       
@<TRIPOS>BOND
   1    1    2 1
   2    1    8 1
   3    1    9 1
   4    1   10 1
   5    1   21 1
   6    2    3 1
   7    2   22 1
   8    2   23 1
   9    3    4 1
  10    3   24 1
  11    3   25 1
  12    4    5 1
  13    5    6 1
  14    5    7 2
  15    6   11 1
  16    6   26 1
  17    6   27 1
  18    8   28 1
  19    8   29 1
  20    8   30 1
  21    9   31 1
  22    9   32 1
  23    9   33 1
  24   10   34 1
  25   10   35 1
  26   10   36 1
  27   11   12 1
  28   11   37 1
  29   11   38 1
  30   12   13 2
  31   12   14 1
  32   14   15 1
  33   15   16 1
  34   15   39 1
  35   15   40 1
  36   16   17 1
  37   16   41 1
  38   16   42 1
  39   17   18 1
  40   17   19 1
  41   17   20 1
  42   17   43 1
  43   18   44 1
  44   18   45 1
  45   18   46 1
  46   19   47 1
  47   19   48 1
  48   19   49 1
  49   20   50 1
  50   20   51 1
  51   20   52 1

#	End of record

