#	Name: ASD01882758
#	Creating user name:	WinNT
#	Creation time:	15. 06. 2019 19:45

#	Modifying user name:	WinNT
#	Modification time:	15. 06. 2019 19:45

#	Program:	/corina/corina34_cracker 3.40 0067  02.08.2006

@<TRIPOS>MOLECULE
ASD01882758
  40   42    0    0    0
SMALL
NO_CHARGES


@<TRIPOS>ATOM
   1 O1             0.8221    -2.8589    -1.9528 O.3     
   2 C2            -0.4275    -2.3689    -1.4623 C.3     
   3 C3            -0.3009    -3.0896    -2.8060 C.3     
   4 C4            -1.0859    -3.1254    -0.3068 C.3     
   5 O5            -1.1622    -2.2736     0.8381 O.3     
   6 C6            -1.7250    -2.7960     1.9593 C.ar    
   7 C7            -1.8314    -2.0247     3.1075 C.ar    
   8 C8            -2.4038    -2.5581     4.2460 C.ar    
   9 C9            -2.8705    -3.8595     4.2418 C.ar    
  10 C10           -2.7653    -4.6305     3.0989 C.ar    
  11 C11           -2.1992    -4.0998     1.9560 C.ar    
  12 C12           -3.4945    -4.4389     5.4852 C.3     
  13 C13           -3.8301    -5.9127     5.2482 C.3     
  14 C14           -2.5263    -4.3227     6.6342 C.ar    
  15 C15           -2.9095    -3.6847     7.7991 C.ar    
  16 C16           -2.0213    -3.5781     8.8530 C.ar    
  17 C17           -0.7501    -4.1097     8.7421 C.ar    
  18 C18           -0.3672    -4.7484     7.5775 C.ar    
  19 C19           -1.2569    -4.8589     6.5252 C.ar    
  20 C20           -4.7755    -3.6713     5.8181 C.3     
  21 H21           -0.5916    -1.2914    -1.4773 H       
  22 H22           -0.3810    -2.4906    -3.7131 H       
  23 H23           -0.6859    -4.1070    -2.8749 H       
  24 H24           -2.0901    -3.4323    -0.5989 H       
  25 H25           -0.4924    -4.0070    -0.0648 H       
  26 H26           -1.4666    -1.0081     3.1114 H       
  27 H27           -2.4865    -1.9581     5.1402 H       
  28 H28           -3.1299    -5.6471     3.0984 H       
  29 H29           -2.1217    -4.7008     1.0620 H       
  30 H30           -2.9176    -6.4596     5.0110 H       
  31 H31           -4.2815    -6.3317     6.1475 H       
  32 H32           -4.5305    -5.9968     4.4172 H       
  33 H33           -3.9026    -3.2694     7.8858 H       
  34 H34           -2.3204    -3.0791     9.7629 H       
  35 H35           -0.0560    -4.0258     9.5652 H       
  36 H36            0.6260    -5.1635     7.4907 H       
  37 H37           -0.9590    -5.3611     5.6167 H       
  38 H38           -5.4758    -3.7554     4.9871 H       
  39 H39           -5.2269    -4.0903     6.7175 H       
  40 H40           -4.5364    -2.6213     5.9870 H       
@<TRIPOS>BOND
   1    1    2 1
   2    1    3 1
   3    2    3 1
   4    2    4 1
   5    2   21 1
   6    3   22 1
   7    3   23 1
   8    4    5 1
   9    4   24 1
  10    4   25 1
  11    5    6 1
  12    6    7 ar
  13    6   11 ar
  14    7    8 ar
  15    7   26 1
  16    8    9 ar
  17    8   27 1
  18    9   10 ar
  19    9   12 1
  20   10   11 ar
  21   10   28 1
  22   11   29 1
  23   12   13 1
  24   12   14 1
  25   12   20 1
  26   13   30 1
  27   13   31 1
  28   13   32 1
  29   14   15 ar
  30   14   19 ar
  31   15   16 ar
  32   15   33 1
  33   16   17 ar
  34   16   34 1
  35   17   18 ar
  36   17   35 1
  37   18   19 ar
  38   18   36 1
  39   19   37 1
  40   20   38 1
  41   20   39 1
  42   20   40 1

#	End of record

