#	Name: ASD05430330
#	Creating user name:	WinNT
#	Creation time:	15. 06. 2019 21:00

#	Modifying user name:	WinNT
#	Modification time:	15. 06. 2019 21:00

#	Program:	/corina/corina34_cracker 3.40 0067  02.08.2006

@<TRIPOS>MOLECULE
ASD05430330
  54   58    0    0    0
SMALL
NO_CHARGES


@<TRIPOS>ATOM
   1 N1            -0.0178     1.4593     0.0101 N.pl3   
   2 C2             1.2218     2.2588     0.0025 C.3     
   3 O3             0.7843     3.5624     0.3978 O.3     
   4 N4            -0.6319     3.5484     0.3066 N.2     
   5 C5            -1.0676     2.3426     0.0743 C.2     
   6 C6            -2.4801     1.9796    -0.0948 C.2     
   7 C7            -3.4328     2.9267    -0.0121 C.2     
   8 C8            -4.8491     2.5628    -0.1817 C.ar    
   9 C9            -5.2065     1.2334    -0.4288 C.ar    
  10 C10           -5.8405     3.5443    -0.0903 C.ar    
  11 C11           -7.1687     3.1972    -0.2498 C.ar    
  12 C12           -7.5173     1.8705    -0.5013 C.ar    
  13 C13           -6.5327     0.8945    -0.5868 C.ar    
  14 N14           -8.8646     1.5203    -0.6624 N.pl3   
  15 C15           -9.8890     1.8488     0.1669 C.2     
  16 N16          -10.9921     1.3439    -0.3148 N.2     
  17 C17          -10.7201     0.6847    -1.4508 C.2     
  18 C18           -9.3987     0.7863    -1.6898 C.2     
  19 O19           -8.1355     4.1489    -0.1612 O.3     
  20 C20           -7.7066     5.4870     0.0988 C.3     
  21 C21          -11.7210    -0.0401    -2.3133 C.3     
  22 C22            0.0021    -0.0041     0.0020 C.3     
  23 C23            0.7362    -0.4460     1.2695 C.3     
  24 C24            1.9382     0.4111     1.5625 C.ar    
  25 C25            2.1647     1.6525     1.0081 C.ar    
  26 C26            2.8697    -0.1042     2.4611 C.ar    
  27 C27            3.9935     0.6142     2.8051 C.ar    
  28 C28            4.2066     1.8660     2.2578 C.ar    
  29 C29            3.2918     2.3799     1.3623 C.ar    
  30 C30            1.8440     2.2918    -1.3948 C.3     
  31 H31           -2.7547     0.9527    -0.2857 H       
  32 H32           -3.1582     3.9536     0.1787 H       
  33 H33           -4.4430     0.4725    -0.4962 H       
  34 H34           -5.5692     4.5713     0.1049 H       
  35 H35           -6.8069    -0.1317    -0.7821 H       
  36 H36           -9.8048     2.4300     1.0733 H       
  37 H37           -8.8616     0.3647    -2.5265 H       
  38 H38           -7.1751     5.5199     1.0499 H       
  39 H39           -7.0427     5.8174    -0.7000 H       
  40 H40           -8.5749     6.1444     0.1449 H       
  41 H41          -12.1218     0.6459    -3.0595 H       
  42 H42          -11.2317    -0.8758    -2.8137 H       
  43 H43          -12.5334    -0.4148    -1.6906 H       
  44 H44           -1.0172    -0.3902     0.0085 H       
  45 H45            0.5320    -0.3643    -0.8797 H       
  46 H46            0.0486    -0.3904     2.1135 H       
  47 H47            1.0604    -1.4795     1.1478 H       
  48 H48            2.7083    -1.0803     2.8942 H       
  49 H49            4.7073     0.2003     3.5019 H       
  50 H50            5.0826     2.4366     2.5289 H       
  51 H51            3.4545     3.3574     0.9329 H       
  52 H52            1.1377     2.7353    -2.0967 H       
  53 H53            2.7564     2.8878    -1.3723 H       
  54 H54            2.0812     1.2761    -1.7111 H       
@<TRIPOS>BOND
   1    1   22 1
   2    1    2 1
   3    1    5 1
   4    2    3 1
   5    2   30 1
   6    2   25 1
   7    3    4 1
   8    4    5 2
   9    5    6 1
  10    6    7 2
  11    6   31 1
  12    7    8 1
  13    7   32 1
  14    8    9 ar
  15    8   10 ar
  16    9   13 ar
  17    9   33 1
  18   10   11 ar
  19   10   34 1
  20   11   12 ar
  21   11   19 1
  22   12   13 ar
  23   12   14 1
  24   13   35 1
  25   14   15 1
  26   14   18 1
  27   15   16 2
  28   15   36 1
  29   16   17 1
  30   17   18 2
  31   17   21 1
  32   18   37 1
  33   19   20 1
  34   20   38 1
  35   20   39 1
  36   20   40 1
  37   21   41 1
  38   21   42 1
  39   21   43 1
  40   22   23 1
  41   22   44 1
  42   22   45 1
  43   23   24 1
  44   23   46 1
  45   23   47 1
  46   24   25 ar
  47   24   26 ar
  48   25   29 ar
  49   26   27 ar
  50   26   48 1
  51   27   28 ar
  52   27   49 1
  53   28   29 ar
  54   28   50 1
  55   29   51 1
  56   30   52 1
  57   30   53 1
  58   30   54 1

#	End of record

