#	Name: ASD02038686
#	Creating user name:	WinNT
#	Creation time:	15. 06. 2019 20:17

#	Modifying user name:	WinNT
#	Modification time:	15. 06. 2019 20:17

#	Program:	/corina/corina34_cracker 3.40 0067  02.08.2006

@<TRIPOS>MOLECULE
ASD02038686
  47   47    0    0    0
SMALL
NO_CHARGES


@<TRIPOS>ATOM
   1 C1            -0.0167     1.3781     0.0096 C.ar    
   2 C2             0.0021    -0.0041     0.0020 C.ar    
   3 C3             1.2084    -0.6789    -0.0132 C.ar    
   4 C4             1.2289    -2.1857    -0.0210 C.3     
   5 C5             1.2217    -2.6884    -1.4660 C.3     
   6 C6             1.2421    -4.1952    -1.4738 C.2     
   7 N7             1.2399    -4.8632    -2.6444 N.am    
   8 N8             1.2589    -6.2640    -2.6516 N.am    
   9 C9             1.2566    -6.9320    -3.8223 C.2     
  10 C10            1.2700    -8.9339    -5.2534 C.ar    
  11 C11            1.1709     2.0855     0.0021 C.ar    
  12 C12            2.3773     1.4107    -0.0131 C.ar    
  13 C13            2.3960     0.0285    -0.0217 C.ar    
  14 C14            1.2770    -8.4388    -3.8300 C.3     
  15 O15            1.2606    -4.8069    -0.4267 O.2     
  16 C16            2.4642    -9.1446    -5.9175 C.ar    
  17 C17            2.4591    -9.5987    -7.2229 C.ar    
  18 C18            1.2586    -9.8426    -7.8657 C.ar    
  19 C19            0.0628    -9.6317    -7.2007 C.ar    
  20 C20            0.0699    -9.1825    -5.8921 C.ar    
  21 Cl21          -1.4445    -9.9374    -8.0059 Cl      
  22 Cl22           1.2516   -10.4124    -9.5055 Cl      
  23 O23            1.2381    -6.3203    -4.8694 O.2     
  24 C24            1.1505     3.5924     0.0099 C.3     
  25 H25           -0.9592     1.9054     0.0170 H       
  26 H26           -0.9258    -0.5567     0.0083 H       
  27 H27            2.1287    -2.5395     0.4823 H       
  28 H28            0.3490    -2.5637     0.4996 H       
  29 H29            0.3219    -2.3346    -1.9693 H       
  30 H30            2.1016    -2.3104    -1.9866 H       
  31 H31            1.2251    -4.3740    -3.4819 H       
  32 H32            1.2737    -6.7532    -1.8142 H       
  33 H33            3.3051     1.9634    -0.0197 H       
  34 H34            3.3385    -0.4987    -0.0332 H       
  35 H35            2.1769    -8.7926    -3.3268 H       
  36 H36            0.3971    -8.8168    -3.3095 H       
  37 H37            3.4016    -8.9539    -5.4161 H       
  38 H38            3.3923    -9.7627    -7.7412 H       
  39 H39           -0.8626    -9.0181    -5.3726 H       
  40 H40            1.1552     3.9505     1.0394 H       
  41 H41            2.0306     3.9704    -0.5103 H       
  42 H42            0.2509     3.9462    -0.4937 H       
  43 S43           10.7090    10.6302     6.0485 S.3     
  44 O44           10.7315     8.9704     6.0394 O.2     
  45 O45           12.1351    11.4797     6.0395 O.2     
  46 N46            9.2349    11.4547     6.0600 N.2     
  47 H47            8.4016    10.9584     6.0613 H       
@<TRIPOS>BOND
   1    1    2 ar
   2    1   11 ar
   3    1   25 1
   4    2    3 ar
   5    2   26 1
   6    3    4 1
   7    3   13 ar
   8    4    5 1
   9    4   27 1
  10    4   28 1
  11    5    6 1
  12    5   29 1
  13    5   30 1
  14    6    7 am
  15    6   15 2
  16    7    8 1
  17    7   31 1
  18    8    9 am
  19    8   32 1
  20    9   14 1
  21    9   23 2
  22   10   16 ar
  23   10   14 1
  24   10   20 ar
  25   11   12 ar
  26   11   24 1
  27   12   13 ar
  28   12   33 1
  29   13   34 1
  30   14   35 1
  31   14   36 1
  32   16   17 ar
  33   16   37 1
  34   17   18 ar
  35   17   38 1
  36   18   19 ar
  37   18   22 1
  38   19   20 ar
  39   19   21 1
  40   20   39 1
  41   24   40 1
  42   24   41 1
  43   24   42 1
  44   43   44 2
  45   43   45 2
  46   43   46 2
  47   46   47 1

#	End of record

