#	Name: ASD01028100
#	Creating user name:	WinNT
#	Creation time:	15. 06. 2019 18:56

#	Modifying user name:	WinNT
#	Modification time:	15. 06. 2019 18:56

#	Program:	/corina/corina34_cracker 3.40 0067  02.08.2006

@<TRIPOS>MOLECULE
ASD01028100
  51   53    0    0    0
SMALL
NO_CHARGES


@<TRIPOS>ATOM
   1 N1             1.9645     1.1295    -0.3794 N.pl3   
   2 C2             1.4604    -0.2590    -0.2846 C.ar    
   3 C3             1.6601    -0.9879     0.8730 C.ar    
   4 C4             2.3912    -0.3668     2.0353 C.3     
   5 C5             0.7838    -0.8239    -1.3547 C.ar    
   6 C6             0.3102    -2.1288    -1.2638 C.ar    
   7 C7             0.5186    -2.8598    -0.1005 C.ar    
   8 C8             1.1909    -2.2843     0.9676 C.ar    
   9 O9             0.4569    -0.3254    -2.5829 O.3     
  10 C10            0.1384    -1.4732    -3.3918 C.3     
  11 O11           -0.3142    -2.4499    -2.4354 O.3     
  12 O12            0.0576    -4.1356    -0.0068 O.3     
  13 C13            0.1811    -4.7724     1.1873 C.ar    
  14 C14           -0.8171    -4.6702     2.1460 C.ar    
  15 N15           -0.7017    -5.2865     3.3053 N.ar    
  16 C16            0.3549    -6.0184     3.6008 C.ar    
  17 C17            1.3903    -6.1672     2.6974 C.ar    
  18 C18            1.3073    -5.5410     1.4640 C.ar    
  19 C19            0.4346    -6.7012     4.9419 C.3     
  20 C20            2.1527     1.1262     3.9265 C.3     
  21 C21            1.1666     2.0215     4.6794 C.3     
  22 C22            1.8746     2.6715     5.8699 C.3     
  23 C23            0.8885     3.5669     6.6229 C.3     
  24 O24            0.6755     5.0531     8.5166 O.3     
  25 C25            1.5964     4.2169     7.8133 C.3     
  26 N26            1.4730     0.5021     2.7835 N.3     
  27 O27            3.0868     1.3424    -0.8019 O.2     
  28 O28            1.2551     2.0595    -0.0395 O.2     
  29 H29            2.7638    -1.1529     2.6921 H       
  30 H30            3.2288     0.2237     1.6640 H       
  31 H31            1.3534    -2.8522     1.8718 H       
  32 H32           -0.6549    -1.2344    -4.1001 H       
  33 H33            1.0252    -1.8313    -3.9146 H       
  34 H34           -1.6973    -4.0792     1.9402 H       
  35 H35            2.2519    -6.7682     2.9481 H       
  36 H36            2.1013    -5.6402     0.7387 H       
  37 H37           -0.0096    -7.6941     4.8710 H       
  38 H38            1.4785    -6.7908     5.2425 H       
  39 H39           -0.1074    -6.1127     5.6821 H       
  40 H40            2.9886     1.7271     3.5683 H       
  41 H41            2.5236     0.3505     4.5964 H       
  42 H42            0.7957     2.7972     4.0095 H       
  43 H43            0.3308     1.4206     5.0376 H       
  44 H44            2.2455     1.8958     6.5398 H       
  45 H45            2.7104     3.2724     5.5117 H       
  46 H46            0.5176     4.3426     5.9530 H       
  47 H47            0.0526     2.9660     6.9811 H       
  48 H48            1.0568     5.4986     9.2855 H       
  49 H49            1.9674     3.4412     8.4833 H       
  50 H50            2.4323     4.8178     7.4551 H       
  51 H51            1.0641     1.2003     2.1807 H       
@<TRIPOS>BOND
   1    1    2 1
   2    1   27 2
   3    1   28 2
   4    2    3 ar
   5    2    5 ar
   6    3    4 1
   7    3    8 ar
   8    4   26 1
   9    4   29 1
  10    4   30 1
  11    5    6 ar
  12    5    9 1
  13    6    7 ar
  14    6   11 1
  15    7    8 ar
  16    7   12 1
  17    8   31 1
  18    9   10 1
  19   10   11 1
  20   10   32 1
  21   10   33 1
  22   12   13 1
  23   13   14 ar
  24   13   18 ar
  25   14   15 ar
  26   14   34 1
  27   15   16 ar
  28   16   17 ar
  29   16   19 1
  30   17   18 ar
  31   17   35 1
  32   18   36 1
  33   19   37 1
  34   19   38 1
  35   19   39 1
  36   20   21 1
  37   20   26 1
  38   20   40 1
  39   20   41 1
  40   21   22 1
  41   21   42 1
  42   21   43 1
  43   22   23 1
  44   22   44 1
  45   22   45 1
  46   23   25 1
  47   23   46 1
  48   23   47 1
  49   24   25 1
  50   24   48 1
  51   25   49 1
  52   25   50 1
  53   26   51 1

#	End of record

