#	Name: ASD01882933
#	Creating user name:	WinNT
#	Creation time:	15. 06. 2019 19:45

#	Modifying user name:	WinNT
#	Modification time:	15. 06. 2019 19:45

#	Program:	/corina/corina34_cracker 3.40 0067  02.08.2006

@<TRIPOS>MOLECULE
ASD01882933
  32   32    0    0    0
SMALL
NO_CHARGES


@<TRIPOS>ATOM
   1 C1            -0.0187     1.5267     0.0104 C.3     
   2 C2             0.0021    -0.0041     0.0020 C.3     
   3 C3             0.7956    -0.5028     1.2136 C.3     
   4 C4             2.2039     0.0979     1.1702 C.3     
   5 C5             2.0981     1.6247     1.1335 C.3     
   6 O6             1.3225     2.0200     0.0003 O.3     
   7 O7            -0.7094     2.0003    -1.1474 O.3     
   8 C8            -0.8847     3.4181    -1.1802 C.3     
   9 C9            -1.6035     3.7954    -2.4082 C.1     
  10 C10           -2.1767     4.0962    -3.3876 C.1     
  11 C11           -2.8954     4.4735    -4.6155 C.3     
  12 O12           -3.0707     5.8913    -4.6483 O.3     
  13 C13           -3.7615     6.3649    -5.8062 C.3     
  14 C14           -3.8912     7.8878    -5.7353 C.3     
  15 H15           -0.5286     1.8784     0.9073 H       
  16 H16           -1.0188    -0.3825     0.0543 H       
  17 H17            0.4759    -0.3569    -0.9140 H       
  18 H18            0.2947    -0.1921     2.1305 H       
  19 H19            0.8619    -1.5904     1.1834 H       
  20 H20            2.7578    -0.2076     2.0579 H       
  21 H21            2.7222    -0.2529     0.2777 H       
  22 H22            1.6159     1.9777     2.0451 H       
  23 H23            3.0962     2.0566     1.0594 H       
  24 H24           -1.4612     3.7332    -0.3105 H       
  25 H25            0.0903     3.9052    -1.1657 H       
  26 H26           -2.3189     4.1584    -5.4853 H       
  27 H27           -3.8704     3.9864    -4.6300 H       
  28 H28           -3.2029     6.0891    -6.7006 H       
  29 H29           -4.7544     5.9171    -5.8454 H       
  30 H30           -4.4498     8.1636    -4.8408 H       
  31 H31           -2.8982     8.3356    -5.6961 H       
  32 H32           -4.4181     8.2490    -6.6185 H       
@<TRIPOS>BOND
   1    1    2 1
   2    1    6 1
   3    1    7 1
   4    1   15 1
   5    2    3 1
   6    2   16 1
   7    2   17 1
   8    3    4 1
   9    3   18 1
  10    3   19 1
  11    4    5 1
  12    4   20 1
  13    4   21 1
  14    5    6 1
  15    5   22 1
  16    5   23 1
  17    7    8 1
  18    8    9 1
  19    8   24 1
  20    8   25 1
  21    9   10 3
  22   10   11 1
  23   11   12 1
  24   11   26 1
  25   11   27 1
  26   12   13 1
  27   13   14 1
  28   13   28 1
  29   13   29 1
  30   14   30 1
  31   14   31 1
  32   14   32 1

#	End of record

