#	Name: ASD05130016
#	Creating user name:	WinNT
#	Creation time:	15. 06. 2019 20:56

#	Modifying user name:	WinNT
#	Modification time:	15. 06. 2019 20:56

#	Program:	/corina/corina34_cracker 3.40 0067  02.08.2006

@<TRIPOS>MOLECULE
ASD05130016
  69   73    0    0    0
SMALL
NO_CHARGES


@<TRIPOS>ATOM
   1 C1             1.0726     3.1864     0.0990 C.2     
   2 O2             2.1101     3.8142     0.0913 O.2     
   3 N3             1.1000     1.8390     0.0847 N.am    
   4 N4             3.6341    -2.2443     0.0003 N.am    
   5 C5             4.8191    -2.8722    -0.1307 C.2     
   6 C6             6.0416    -2.0999    -0.3662 C.2     
   7 C7             5.9722    -0.7365    -0.4527 C.2     
   8 C8             4.7154    -0.1006    -0.3121 C.ar    
   9 C9             4.5978     1.2925    -0.3931 C.ar    
  10 N10            3.4224     1.8672    -0.2605 N.ar    
  11 C11            2.3129     1.1690    -0.0470 C.ar    
  12 C12            2.3390    -0.2140     0.0477 C.ar    
  13 C13            3.5562    -0.8736    -0.0854 C.ar    
  14 O14            4.8742    -4.0866    -0.0527 O.2     
  15 C15            2.4180    -3.0282     0.2300 C.3     
  16 C16            2.2024    -3.2062     1.7342 C.3     
  17 C17            7.3444    -2.7910    -0.5092 C.ar    
  18 C18            7.6479    -3.4750    -1.6875 C.ar    
  19 C19            8.8631    -4.1182    -1.8190 C.ar    
  20 C20            9.7824    -4.0866    -0.7848 C.ar    
  21 C21            9.4868    -3.4072     0.3929 C.ar    
  22 C22            8.2722    -2.7548     0.5301 C.ar    
  23 N23           10.4197    -3.3783     1.4381 N.am    
  24 C24           10.5341    -2.2787     2.2090 C.2     
  25 O25            9.7726    -1.3439     2.0515 O.2     
  26 N26           11.4925    -2.2153     3.1545 N.am    
  27 C27           11.5518    -1.1150     4.0188 C.ar    
  28 C28           11.9484    -1.2879     5.3383 C.ar    
  29 C29           12.0062    -0.2016     6.1890 C.ar    
  30 C30           11.6685     1.0596     5.7270 C.ar    
  31 C31           11.2724     1.2341     4.4119 C.ar    
  32 C32           11.2196     0.1510     3.5560 C.ar    
  33 C33           12.4365    -0.3886     7.6211 C.3     
  34 O34           15.7730     1.9032     8.6925 O.3     
  35 C35           15.6287     0.6355     9.3384 C.3     
  36 C36           14.1768     0.1666     9.2118 C.3     
  37 N37           13.8072     0.1120     7.7899 N.3     
  38 C38           13.9681     1.4300     7.1589 C.3     
  39 C39           15.4221     1.8863     7.3061 C.3     
  40 F40           11.7252     2.1210     6.5609 F       
  41 F41           10.9695    -4.7175    -0.9189 F       
  42 Cl42           6.4979    -3.5179    -2.9872 Cl      
  43 H43            0.1266     3.7070     0.1217 H       
  44 H44            0.2746     1.3362     0.1662 H       
  45 H45            6.8644    -0.1530    -0.6256 H       
  46 H46            5.4758     1.8973    -0.5654 H       
  47 H47            1.4296    -0.7697     0.2222 H       
  48 H48            1.5630    -2.5069    -0.2004 H       
  49 H49            2.5217    -4.0060    -0.2404 H       
  50 H50            1.2975    -3.7894     1.9051 H       
  51 H51            3.0574    -3.7275     2.1646 H       
  52 H52            2.0986    -2.2284     2.2046 H       
  53 H53            9.0965    -4.6474    -2.7311 H       
  54 H54            8.0432    -2.2232     1.4420 H       
  55 H55           10.9831    -4.1496     1.6067 H       
  56 H56           12.1411    -2.9319     3.2364 H       
  57 H57           12.2111    -2.2713     5.6992 H       
  58 H58           11.0091     2.2183     4.0537 H       
  59 H59           10.9152     0.2883     2.5290 H       
  60 H60           11.7644     0.1640     8.2776 H       
  61 H61           12.4028    -1.4481     7.8751 H       
  62 H62           16.2886    -0.0915     8.8650 H       
  63 H63           15.8893     0.7322    10.3924 H       
  64 H64           14.0748    -0.8250     9.6527 H       
  65 H65           13.5218     0.8658     9.7315 H       
  66 H66           13.7138     1.3607     6.1012 H       
  67 H67           13.3098     2.1495     7.6458 H       
  68 H68           15.5333     2.8877     6.8903 H       
  69 H69           16.0760     1.1956     6.7736 H       
@<TRIPOS>BOND
   1    1    2 2
   2    1    3 am
   3    1   43 1
   4    3   11 1
   5    3   44 1
   6    4    5 am
   7    4   13 1
   8    4   15 1
   9    5    6 1
  10    5   14 2
  11    6    7 2
  12    6   17 1
  13    7    8 1
  14    7   45 1
  15    8    9 ar
  16    8   13 ar
  17    9   10 ar
  18    9   46 1
  19   10   11 ar
  20   11   12 ar
  21   12   13 ar
  22   12   47 1
  23   15   16 1
  24   15   48 1
  25   15   49 1
  26   16   50 1
  27   16   51 1
  28   16   52 1
  29   17   18 ar
  30   17   22 ar
  31   18   19 ar
  32   18   42 1
  33   19   20 ar
  34   19   53 1
  35   20   21 ar
  36   20   41 1
  37   21   22 ar
  38   21   23 1
  39   22   54 1
  40   23   24 am
  41   23   55 1
  42   24   25 2
  43   24   26 am
  44   26   27 1
  45   26   56 1
  46   27   28 ar
  47   27   32 ar
  48   28   29 ar
  49   28   57 1
  50   29   30 ar
  51   29   33 1
  52   30   31 ar
  53   30   40 1
  54   31   32 ar
  55   31   58 1
  56   32   59 1
  57   33   37 1
  58   33   60 1
  59   33   61 1
  60   34   35 1
  61   34   39 1
  62   35   36 1
  63   35   62 1
  64   35   63 1
  65   36   37 1
  66   36   64 1
  67   36   65 1
  68   37   38 1
  69   38   39 1
  70   38   66 1
  71   38   67 1
  72   39   68 1
  73   39   69 1

#	End of record

