#	Name: ASD02408229
#	Creating user name:	WinNT
#	Creation time:	15. 06. 2019 20:21

#	Modifying user name:	WinNT
#	Modification time:	15. 06. 2019 20:21

#	Program:	/corina/corina34_cracker 3.40 0067  02.08.2006

@<TRIPOS>MOLECULE
ASD02408229
  44   47    0    0    0
SMALL
NO_CHARGES


@<TRIPOS>ATOM
   1 C1             0.0927     0.9995    -0.1361 C.2     
   2 C2             0.3629    -0.3275    -0.2173 C.2     
   3 N3             1.6384    -0.7766    -0.2158 N.pl3   
   4 N4             2.6573    -0.0026    -0.1399 N.2     
   5 C5             2.5372     1.3048    -0.0567 C.2     
   6 C6             1.1877     1.8928    -0.0505 C.2     
   7 C7             1.8570    -2.1556    -0.3008 C.ar    
   8 C8             0.7852    -3.0361    -0.2269 C.ar    
   9 C9             1.0045    -4.3971    -0.3117 C.ar    
  10 C10            2.2892    -4.8834    -0.4698 C.ar    
  11 C11            3.3587    -4.0095    -0.5433 C.ar    
  12 C12            3.1460    -2.6475    -0.4650 C.ar    
  13 C13            3.7338     2.1664     0.0292 C.2     
  14 N14            4.8723     1.9064     0.7391 N.pl3   
  15 N15            5.7503     2.9801     0.5454 N.2     
  16 C16            5.1786     3.8544    -0.2437 C.2     
  17 C17            3.9147     3.3807    -0.5959 C.2     
  18 C18            5.1171     0.7698     1.5202 C.ar    
  19 O19            1.0197     3.1008     0.0245 O.2     
  20 C20            6.3544     0.1417     1.4662 C.ar    
  21 C21            4.1249     0.2722     2.3546 C.ar    
  22 C22            4.3693    -0.8487     3.1236 C.ar    
  23 C23            5.6006    -1.4753     3.0633 C.ar    
  24 C24            6.5926    -0.9788     2.2377 C.ar    
  25 C25           -0.1576    -5.3531    -0.2312 C.3     
  26 F26           -0.6566    -5.5899    -1.5166 F       
  27 F27            0.2696    -6.5600     0.3328 F       
  28 F28           -1.1647    -4.7971     0.5649 F       
  29 C29            5.7877     5.1547    -0.7012 C.3     
  30 H30           -0.9243     1.3629    -0.1411 H       
  31 H31           -0.4511    -1.0342    -0.2837 H       
  32 H32           -0.2184    -2.6569    -0.1031 H       
  33 H33            2.4579    -5.9481    -0.5358 H       
  34 H34            4.3609    -4.3927    -0.6664 H       
  35 H35            3.9816    -1.9656    -0.5224 H       
  36 H36            3.2031     3.8795    -1.2371 H       
  37 H37            7.1294     0.5288     0.8213 H       
  38 H38            3.1632     0.7613     2.4025 H       
  39 H39            3.5982    -1.2360     3.7730 H       
  40 H40            5.7893    -2.3517     3.6656 H       
  41 H41            7.5531    -1.4706     2.1925 H       
  42 H42            6.3355     4.9925    -1.6295 H       
  43 H43            4.9979     5.8869    -0.8685 H       
  44 H44            6.4704     5.5250     0.0636 H       
@<TRIPOS>BOND
   1    1    2 2
   2    1    6 1
   3    1   30 1
   4    2    3 1
   5    2   31 1
   6    3    4 1
   7    3    7 1
   8    4    5 2
   9    5    6 1
  10    5   13 1
  11    6   19 2
  12    7    8 ar
  13    7   12 ar
  14    8    9 ar
  15    8   32 1
  16    9   10 ar
  17    9   25 1
  18   10   11 ar
  19   10   33 1
  20   11   12 ar
  21   11   34 1
  22   12   35 1
  23   13   14 1
  24   13   17 2
  25   14   15 1
  26   14   18 1
  27   15   16 2
  28   16   17 1
  29   16   29 1
  30   17   36 1
  31   18   20 ar
  32   18   21 ar
  33   20   24 ar
  34   20   37 1
  35   21   22 ar
  36   21   38 1
  37   22   23 ar
  38   22   39 1
  39   23   24 ar
  40   23   40 1
  41   24   41 1
  42   25   26 1
  43   25   27 1
  44   25   28 1
  45   29   42 1
  46   29   43 1
  47   29   44 1

#	End of record

