#	Name: ASD03081181
#	Creating user name:	WinNT
#	Creation time:	15. 06. 2019 20:27

#	Modifying user name:	WinNT
#	Modification time:	15. 06. 2019 20:27

#	Program:	/corina/corina34_cracker 3.40 0067  02.08.2006

@<TRIPOS>MOLECULE
ASD03081181
  54   56    0    0    0
SMALL
NO_CHARGES


@<TRIPOS>ATOM
   1 C1            -0.0156     1.8998    -0.4192 C.3     
   2 C2            -0.2099     0.3835    -0.3189 C.3     
   3 N3             0.6815    -0.2723    -1.2855 N.am    
   4 C4             2.1154     0.0469    -1.2529 C.3     
   5 C5             2.2844     1.5668    -1.3429 C.3     
   6 C6             1.4660     2.2342    -0.2360 C.3     
   7 C7             1.6585     3.7514    -0.3031 C.3     
   8 C8             0.8878     4.4097     0.8436 C.3     
   9 N9             1.3798     3.8912     2.1264 N.3     
  10 C10            1.1614     2.4430     2.2330 C.3     
  11 C11            1.9397     1.7255     1.1277 C.3     
  12 C12            0.1934    -1.1499    -2.1843 C.2     
  13 O13           -0.9772    -1.4765    -2.1414 O.2     
  14 N14            1.0026    -1.6657    -3.1306 N.am    
  15 C15            0.7606     4.6013     3.2535 C.3     
  16 C16            0.5207    -2.6531    -4.0041 C.ar    
  17 C17            1.1970    -2.9237    -5.1914 C.ar    
  18 C18            0.7194    -3.8984    -6.0515 C.ar    
  19 C19           -0.4309    -4.6032    -5.7298 C.ar    
  20 C20           -1.1041    -4.3324    -4.5470 C.ar    
  21 C21           -0.6258    -3.3638    -3.6833 C.ar    
  22 O22           -0.8999    -5.5603    -6.5746 O.3     
  23 C23           -0.1577    -5.7866    -7.7746 C.3     
  24 O24            2.3246    -2.2314    -5.5057 O.3     
  25 C25            2.9660    -2.5618    -6.7391 C.3     
  26 Cl26          -2.5440    -5.2158    -4.1471 Cl      
  27 H27           -0.3481     2.2451    -1.3982 H       
  28 H28           -0.5987     2.3933     0.3583 H       
  29 H29            0.0353     0.0496     0.6893 H       
  30 H30           -1.2454     0.1319    -0.5477 H       
  31 H31            2.5490    -0.3144    -0.3204 H       
  32 H32            2.6144    -0.4270    -2.0982 H       
  33 H33            3.3368     1.8234    -1.2222 H       
  34 H34            1.9339     1.9148    -2.3146 H       
  35 H35            2.7186     3.9881    -0.2121 H       
  36 H36            1.2823     4.1243    -1.2557 H       
  37 H37            1.0349     5.4891     0.8077 H       
  38 H38           -0.1740     4.1844     0.7440 H       
  39 H39            1.5075     2.0941     3.2060 H       
  40 H40            0.0982     2.2273     2.1272 H       
  41 H41            1.7639     0.6520     1.1968 H       
  42 H42            3.0046     1.9285     1.2419 H       
  43 H43            1.9181    -1.3546    -3.2080 H       
  44 H44           -0.3208     4.4705     3.2154 H       
  45 H45            1.1425     4.1976     4.1912 H       
  46 H46            1.0007     5.6626     3.1903 H       
  47 H47            1.2423    -4.1092    -6.9727 H       
  48 H48           -1.1480    -3.1579    -2.7606 H       
  49 H49           -0.6386    -6.5729    -8.3564 H       
  50 H50           -0.1262    -4.8683    -8.3610 H       
  51 H51            0.8579    -6.0912    -7.5217 H       
  52 H52            3.2608    -3.6111    -6.7257 H       
  53 H53            2.2763    -2.3887    -7.5652 H       
  54 H54            3.8504    -1.9376    -6.8673 H       
@<TRIPOS>BOND
   1    1    2 1
   2    1    6 1
   3    1   27 1
   4    1   28 1
   5    2    3 1
   6    2   29 1
   7    2   30 1
   8    3    4 1
   9    3   12 am
  10    4    5 1
  11    4   31 1
  12    4   32 1
  13    5    6 1
  14    5   33 1
  15    5   34 1
  16    6    7 1
  17    6   11 1
  18    7    8 1
  19    7   35 1
  20    7   36 1
  21    8    9 1
  22    8   37 1
  23    8   38 1
  24    9   10 1
  25    9   15 1
  26   10   11 1
  27   10   39 1
  28   10   40 1
  29   11   41 1
  30   11   42 1
  31   12   13 2
  32   12   14 am
  33   14   16 1
  34   14   43 1
  35   15   44 1
  36   15   45 1
  37   15   46 1
  38   16   17 ar
  39   16   21 ar
  40   17   18 ar
  41   17   24 1
  42   18   19 ar
  43   18   47 1
  44   19   20 ar
  45   19   22 1
  46   20   21 ar
  47   20   26 1
  48   21   48 1
  49   22   23 1
  50   23   49 1
  51   23   50 1
  52   23   51 1
  53   24   25 1
  54   25   52 1
  55   25   53 1
  56   25   54 1

#	End of record

