#	Name: ASD01914192
#	Creating user name:	WinNT
#	Creation time:	15. 06. 2019 20:03

#	Modifying user name:	WinNT
#	Modification time:	15. 06. 2019 20:03

#	Program:	/corina/corina34_cracker 3.40 0067  02.08.2006

@<TRIPOS>MOLECULE
ASD01914192
  36   37    0    0    0
SMALL
NO_CHARGES


@<TRIPOS>ATOM
   1 C1            -0.0212     1.4733     0.0049 C.2     
   2 C2             0.0061    -0.0036     0.0006 C.ar    
   3 C3             0.9978    -0.6841    -0.7093 C.ar    
   4 C4             1.0189    -2.0623    -0.7096 C.ar    
   5 C5             0.0577    -2.7730    -0.0071 C.ar    
   6 C6            -0.9291    -2.1024     0.6993 C.ar    
   7 C7            -0.9562    -0.7244     0.7111 C.ar    
   8 O8             1.0201     2.1006    -0.0098 O.2     
   9 N9            -1.2006     2.1255     0.0197 N.am    
  10 C10           -1.2291     3.5849     0.1438 C.3     
  11 C11           -1.1889     4.2161    -1.2493 C.3     
  12 C12           -1.2175     5.6826    -1.1246 C.1     
  13 C13           -1.2404     6.8521    -1.0251 C.1     
  14 C14           -1.2683     8.2787    -0.9037 C.ar    
  15 C15           -1.2396     9.0719    -2.0514 C.ar    
  16 C16           -1.2671    10.4486    -1.9175 C.ar    
  17 C17           -1.3225    10.9895    -0.6402 C.ar    
  18 C18           -1.3483    10.1448     0.4541 C.ar    
  19 N19           -1.3267     8.8366     0.3000 N.ar    
  20 C20           -2.4540     1.3749    -0.0885 C.3     
  21 F21            0.0824    -4.1238    -0.0115 F       
  22 H22            1.7466    -0.1314    -1.2573 H       
  23 H23            1.7854    -2.5895    -1.2582 H       
  24 H24           -1.6755    -2.6609     1.2448 H       
  25 H25           -1.7228    -0.2030     1.2650 H       
  26 H26           -2.1433     3.8884     0.6539 H       
  27 H27           -0.3648     3.9176     0.7186 H       
  28 H28           -0.2746     3.9127    -1.7594 H       
  29 H29           -2.0532     3.8834    -1.8241 H       
  30 H30           -1.1962     8.6176    -3.0302 H       
  31 H31           -1.2457    11.0883    -2.7874 H       
  32 H32           -1.3447    12.0604    -0.5025 H       
  33 H33           -1.3910    10.5631     1.4489 H       
  34 H34           -2.7565     1.0285     0.8998 H       
  35 H35           -3.2297     2.0204    -0.5004 H       
  36 H36           -2.3084     0.5172    -0.7452 H       
@<TRIPOS>BOND
   1    1    2 1
   2    1    8 2
   3    1    9 am
   4    2    3 ar
   5    2    7 ar
   6    3    4 ar
   7    3   22 1
   8    4    5 ar
   9    4   23 1
  10    5    6 ar
  11    5   21 1
  12    6    7 ar
  13    6   24 1
  14    7   25 1
  15    9   10 1
  16    9   20 1
  17   10   11 1
  18   10   26 1
  19   10   27 1
  20   11   12 1
  21   11   28 1
  22   11   29 1
  23   12   13 3
  24   13   14 1
  25   14   15 ar
  26   14   19 ar
  27   15   16 ar
  28   15   30 1
  29   16   17 ar
  30   16   31 1
  31   17   18 ar
  32   17   32 1
  33   18   19 ar
  34   18   33 1
  35   20   34 1
  36   20   35 1
  37   20   36 1

#	End of record

