#	Name: ASD00960187
#	Creating user name:	WinNT
#	Creation time:	15. 06. 2019 18:53

#	Modifying user name:	WinNT
#	Modification time:	15. 06. 2019 18:53

#	Program:	/corina/corina34_cracker 3.40 0067  02.08.2006

@<TRIPOS>MOLECULE
ASD00960187
  36   38    0    0    0
SMALL
NO_CHARGES


@<TRIPOS>ATOM
   1 C1            -0.0168     1.3864     0.0097 C.2     
   2 C2             0.0021    -0.0041     0.0020 C.2     
   3 N3             1.2772     1.8311    -0.0003 N.pl3   
   4 C4             2.1116     0.7390    -0.0141 C.2     
   5 C5             1.3277    -0.4055    -0.0128 C.2     
   6 N6             1.8480     3.1113     0.0007 N.2     
   7 C7             3.1551     3.2472    -0.0114 C.2     
   8 N8             3.9766     2.1906    -0.0253 N.2     
   9 C9             3.5124     0.9558    -0.0259 C.2     
  10 N10            4.3834    -0.1160    -0.0404 N.pl3   
  11 C11            3.7366     4.6107    -0.0101 C.2     
  12 N12            2.9274     5.6884     0.0034 N.am    
  13 O13            4.9429     4.7567    -0.0211 O.2     
  14 C14           -1.2121     2.2275     0.0202 C.2     
  15 O15           -2.3160     1.7158     0.0233 O.2     
  16 O16           -1.0915     3.5714     0.0264 O.3     
  17 C17           -2.3016     4.3314     0.0365 C.3     
  18 C18           -1.9713     5.8018     0.0423 C.ar    
  19 C19           -1.8261     6.4822    -1.1522 C.ar    
  20 C20           -1.5231     7.8309    -1.1469 C.ar    
  21 C21           -1.3658     8.4993     0.0528 C.ar    
  22 C22           -1.5120     7.8191     1.2473 C.ar    
  23 C23           -1.8192     6.4713     1.2421 C.ar    
  24 H24           -0.8608    -0.6535     0.0073 H       
  25 H25            1.6859    -1.4243    -0.0214 H       
  26 H26            5.3411     0.0374    -0.0502 H       
  27 H27            4.0373    -1.0222    -0.0407 H       
  28 H28            1.9645     5.5719     0.0122 H       
  29 H29            3.3080     6.5807     0.0043 H       
  30 H30           -2.8872     4.0940    -0.8516 H       
  31 H31           -2.8779     4.0850     0.9283 H       
  32 H32           -1.9490     5.9600    -2.0896 H       
  33 H33           -1.4090     8.3624    -2.0802 H       
  34 H34           -1.1284     9.5529     0.0569 H       
  35 H35           -1.3887     8.3412     2.1847 H       
  36 H36           -1.9371     5.9407     2.1753 H       
@<TRIPOS>BOND
   1    1    2 2
   2    1    3 1
   3    1   14 1
   4    2    5 1
   5    2   24 1
   6    3    4 1
   7    3    6 1
   8    4    5 2
   9    4    9 1
  10    5   25 1
  11    6    7 2
  12    7    8 1
  13    7   11 1
  14    8    9 2
  15    9   10 1
  16   10   26 1
  17   10   27 1
  18   11   12 am
  19   11   13 2
  20   12   28 1
  21   12   29 1
  22   14   15 2
  23   14   16 1
  24   16   17 1
  25   17   18 1
  26   17   30 1
  27   17   31 1
  28   18   19 ar
  29   18   23 ar
  30   19   20 ar
  31   19   32 1
  32   20   21 ar
  33   20   33 1
  34   21   22 ar
  35   21   34 1
  36   22   23 ar
  37   22   35 1
  38   23   36 1

#	End of record

