#	Name: ASD05313095
#	Creating user name:	WinNT
#	Creation time:	15. 06. 2019 20:58

#	Modifying user name:	WinNT
#	Modification time:	15. 06. 2019 20:58

#	Program:	/corina/corina34_cracker 3.40 0067  02.08.2006

@<TRIPOS>MOLECULE
ASD05313095
  41   44    0    0    0
SMALL
NO_CHARGES


@<TRIPOS>ATOM
   1 C1            -0.0644     0.7521     1.0954 C.2     
   2 C2             0.1309    -0.6728     0.6350 C.3     
   3 N3             0.9284     1.6757     1.1266 N.pl3   
   4 N4             1.4661    -0.7446     0.0120 N.am    
   5 C5             2.5828    -0.0650     0.6861 C.3     
   6 C6             2.3119     1.4439     0.7153 C.3     
   7 N7            -0.9058     2.5510     1.8298 N.2     
   8 N8            -1.1496     1.3224     1.5261 N.2     
   9 C9             0.3640     2.8195     1.6034 C.2     
  10 C10            1.0459     4.1131     1.8270 C.ar    
  11 C11            0.3246     5.1988     2.3239 C.ar    
  12 C12            0.9766     6.4020     2.5281 C.ar    
  13 C13            2.3296     6.4818     2.2289 C.ar    
  14 C14            2.9834     5.3659     1.7390 C.ar    
  15 N15            2.3409     4.2303     1.5582 N.ar    
  16 C16            1.6574    -1.4143    -1.1419 C.2     
  17 O17            2.7409    -1.3800    -1.6921 O.2     
  18 C18            0.5507    -2.1898    -1.7378 C.ar    
  19 C19            0.3188    -2.1382    -3.1161 C.ar    
  20 C20           -0.7193    -2.8679    -3.6656 C.ar    
  21 C21           -1.5256    -3.6456    -2.8555 C.ar    
  22 C22           -1.3007    -3.6999    -1.4908 C.ar    
  23 C23           -0.2655    -2.9827    -0.9289 C.ar    
  24 C24           -0.9725    -2.8149    -5.1503 C.3     
  25 F25           -2.0660    -3.6284    -5.4662 F       
  26 F26           -1.2471    -1.4966    -5.5297 F       
  27 F27            0.1603    -3.2704    -5.8331 F       
  28 F28            1.1060    -1.3775    -3.9078 F       
  29 H29            0.0816    -1.3494     1.4881 H       
  30 H30           -0.6347    -0.9361    -0.0947 H       
  31 H31            2.6736    -0.4382     1.7062 H       
  32 H32            3.5079    -0.2585     0.1431 H       
  33 H33            2.4712     1.8615    -0.2789 H       
  34 H34            2.9877     1.9219     1.4246 H       
  35 H35           -0.7279     5.1017     2.5458 H       
  36 H36            0.4446     7.2602     2.9114 H       
  37 H37            2.8669     7.4069     2.3769 H       
  38 H38            4.0361     5.4253     1.5051 H       
  39 H39           -2.3353    -4.2133    -3.2895 H       
  40 H40           -1.9353    -4.3096    -0.8646 H       
  41 H41           -0.0896    -3.0305     0.1356 H       
@<TRIPOS>BOND
   1    1    2 1
   2    1    3 1
   3    1    8 2
   4    2    4 1
   5    2   29 1
   6    2   30 1
   7    3    6 1
   8    3    9 1
   9    4    5 1
  10    4   16 am
  11    5    6 1
  12    5   31 1
  13    5   32 1
  14    6   33 1
  15    6   34 1
  16    7    8 1
  17    7    9 2
  18    9   10 1
  19   10   11 ar
  20   10   15 ar
  21   11   12 ar
  22   11   35 1
  23   12   13 ar
  24   12   36 1
  25   13   14 ar
  26   13   37 1
  27   14   15 ar
  28   14   38 1
  29   16   17 2
  30   16   18 1
  31   18   19 ar
  32   18   23 ar
  33   19   20 ar
  34   19   28 1
  35   20   21 ar
  36   20   24 1
  37   21   22 ar
  38   21   39 1
  39   22   23 ar
  40   22   40 1
  41   23   41 1
  42   24   25 1
  43   24   26 1
  44   24   27 1

#	End of record

