#	Name: ASD01478065
#	Creating user name:	WinNT
#	Creation time:	15. 06. 2019 19:21

#	Modifying user name:	WinNT
#	Modification time:	15. 06. 2019 19:21

#	Program:	/corina/corina34_cracker 3.40 0067  02.08.2006

@<TRIPOS>MOLECULE
ASD01478065
  15   15    0    0    0
SMALL
NO_CHARGES


@<TRIPOS>ATOM
   1 O1            -0.0173     1.4255     0.0099 O.3     
   2 C2             0.0021    -0.0041     0.0020 C.3     
   3 O3             0.6958    -0.4649    -1.1600 O.3     
   4 C4             2.0457     0.0014    -1.2486 C.3     
   5 C5             2.0444     1.5340    -1.2382 C.3     
   6 C6             1.2842     2.0200     0.0006 C.3     
   7 O7             3.3897     2.0136    -1.1932 O.3     
   8 H8             0.5105    -0.3655     0.8959 H       
   9 H9            -1.0205    -0.3812    -0.0119 H       
  10 H10            2.6163    -0.3688    -0.3969 H       
  11 H11            2.4955    -0.3568    -2.1746 H       
  12 H12            1.5524     1.9049    -2.1374 H       
  13 H13            1.1894     3.1053    -0.0319 H       
  14 H14            1.8260     1.7262     0.8997 H       
  15 H15            3.4635     2.9778    -1.1843 H       
@<TRIPOS>BOND
   1    1    2 1
   2    1    6 1
   3    2    3 1
   4    2    8 1
   5    2    9 1
   6    3    4 1
   7    4    5 1
   8    4   10 1
   9    4   11 1
  10    5    6 1
  11    5    7 1
  12    5   12 1
  13    6   13 1
  14    6   14 1
  15    7   15 1

#	End of record

