#	Name: ASD03320049
#	Creating user name:	WinNT
#	Creation time:	15. 06. 2019 20:36

#	Modifying user name:	WinNT
#	Modification time:	15. 06. 2019 20:36

#	Program:	/corina/corina34_cracker 3.40 0067  02.08.2006

@<TRIPOS>MOLECULE
ASD03320049
  49   52    0    0    0
SMALL
NO_CHARGES


@<TRIPOS>ATOM
   1 C1            -0.0181     1.4709     0.0148 C.2     
   2 C2             0.0014    -0.0045     0.0118 C.ar    
   3 C3             1.2193    -0.6979     0.0013 C.ar    
   4 C4             1.1851    -2.0895    -0.0007 C.ar    
   5 C5            -0.0616    -2.7402     0.0079 C.ar    
   6 N6            -1.1881    -2.0440     0.0172 N.ar    
   7 C7            -1.1931    -0.7273     0.0252 C.ar    
   8 O8             1.0268     2.0928     0.0082 O.2     
   9 N9            -1.1942     2.1292     0.0193 N.am    
  10 N10           -0.1117    -4.1223     0.0060 N.3     
  11 C11           -1.5107    -4.6020     0.0160 C.3     
  12 C12           -1.5366    -5.9022     0.8407 C.3     
  13 C13           -0.0805    -6.1066     1.3180 C.3     
  14 C14            0.5161    -4.6793     1.2315 C.3     
  15 O15           -1.9494    -6.9996     0.0237 O.3     
  16 N16            3.3816    -2.9082     0.9759 N.pl3   
  17 N17            4.4042    -3.7700     0.5604 N.2     
  18 C18            4.1044    -4.2388    -0.6243 C.2     
  19 C19            2.8789    -3.7000    -1.0215 C.2     
  20 C20            2.4401    -2.8714    -0.0121 C.2     
  21 F21            2.2389    -3.9469    -2.1854 F       
  22 C22           -1.2149     3.5249     0.1327 C.ar    
  23 C23           -2.1832     4.2618    -0.5363 C.ar    
  24 C24           -2.2030     5.6380    -0.4240 C.ar    
  25 C25           -1.2559     6.2843     0.3568 C.ar    
  26 C26           -0.2882     5.5487     1.0254 C.ar    
  27 C27           -0.2706     4.1721     0.9187 C.ar    
  28 O28           -1.2757     7.6394     0.4665 O.3     
  29 C29           -0.2708     8.2386     1.2869 C.3     
  30 F30           -0.3860     7.7540     2.5942 F       
  31 F31            0.9944     7.9209     0.7815 F       
  32 Cl32          -0.4851    10.0289     1.2886 Cl      
  33 H33            2.1596    -0.1666    -0.0054 H       
  34 H34           -2.1348    -0.1987     0.0378 H       
  35 H35           -2.0262     1.6363    -0.0560 H       
  36 H36           -2.1559    -3.8555     0.4793 H       
  37 H37           -1.8420    -4.8019    -1.0030 H       
  38 H38           -2.2036    -5.7944     1.6961 H       
  39 H39           -0.0588    -6.4721     2.3447 H       
  40 H40            0.4512    -6.7878     0.6536 H       
  41 H41            1.5999    -4.7213     1.1235 H       
  42 H42            0.2381    -4.0925     2.1069 H       
  43 H43           -1.9845    -7.8459     0.4902 H       
  44 H44            3.3464    -2.4267     1.8172 H       
  45 H45            4.7055    -4.9274    -1.1996 H       
  46 H46           -2.9205     3.7589    -1.1445 H       
  47 H47           -2.9559     6.2113    -0.9445 H       
  48 H48            0.4489     6.0525     1.6330 H       
  49 H49            0.4798     3.5992     1.4431 H       
@<TRIPOS>BOND
   1    1    2 1
   2    1    8 2
   3    1    9 am
   4    2    3 ar
   5    2    7 ar
   6    3    4 ar
   7    3   33 1
   8    4    5 ar
   9    4   20 1
  10    5    6 ar
  11    5   10 1
  12    6    7 ar
  13    7   34 1
  14    9   22 1
  15    9   35 1
  16   10   11 1
  17   10   14 1
  18   11   12 1
  19   11   36 1
  20   11   37 1
  21   12   13 1
  22   12   15 1
  23   12   38 1
  24   13   14 1
  25   13   39 1
  26   13   40 1
  27   14   41 1
  28   14   42 1
  29   15   43 1
  30   16   17 1
  31   16   20 1
  32   16   44 1
  33   17   18 2
  34   18   19 1
  35   18   45 1
  36   19   20 2
  37   19   21 1
  38   22   23 ar
  39   22   27 ar
  40   23   24 ar
  41   23   46 1
  42   24   25 ar
  43   24   47 1
  44   25   26 ar
  45   25   28 1
  46   26   27 ar
  47   26   48 1
  48   27   49 1
  49   28   29 1
  50   29   30 1
  51   29   31 1
  52   29   32 1

#	End of record

