#	Name: ASD07301077
#	Creating user name:	WinNT
#	Creation time:	15. 06. 2019 21:10

#	Modifying user name:	WinNT
#	Modification time:	15. 06. 2019 21:10

#	Program:	/corina/corina34_cracker 3.40 0067  02.08.2006

@<TRIPOS>MOLECULE
ASD07301077
  27   27    0    0    0
SMALL
NO_CHARGES


@<TRIPOS>ATOM
   1 C1            -0.1413     1.5013     0.0177 C.3     
   2 C2            -0.1146    -0.0054     0.0086 C.2     
   3 C3             0.0227    -0.7424     1.2655 C.2     
   4 C4             0.0486    -2.2056     1.2566 C.2     
   5 C5             1.3667    -2.9357     1.2352 C.3     
   6 O6            -0.2069    -0.6076    -1.0410 O.2     
   7 O7            -0.9914    -2.8310     1.2666 O.2     
   8 N8             0.1234    -0.0854     2.4106 N.2     
   9 N9             0.1405    -0.7327     3.5263 N.pl3   
  10 C10            0.1399    -0.0377     4.7361 C.ar    
  11 C11            0.1584    -0.7348     5.9415 C.ar    
  12 C12            0.1582    -0.0421     7.1378 C.ar    
  13 C13            0.1391     1.3420     7.1372 C.ar    
  14 C14            0.1203     2.0367     5.9403 C.ar    
  15 C15            0.1266     1.3516     4.7412 C.ar    
  16 F16            0.1761    -2.0857     5.9418 F       
  17 Cl17           0.1383     2.2086     8.6414 Cl      
  18 H18            0.8748     1.8833    -0.0808 H       
  19 H19           -0.7463     1.8590    -0.8154 H       
  20 H20           -0.5717     1.8514     0.9559 H       
  21 H21            2.1794    -2.2157     1.1393 H       
  22 H22            1.4862    -3.4971     2.1619 H       
  23 H23            1.3880    -3.6225     0.3890 H       
  24 H24            0.1539    -1.7026     3.5241 H       
  25 H25            0.1725    -0.5811     8.0736 H       
  26 H26            0.1051     3.1166     5.9440 H       
  27 H27            0.1164     1.8953     3.8081 H       
@<TRIPOS>BOND
   1    1    2 1
   2    1   18 1
   3    1   19 1
   4    1   20 1
   5    2    3 1
   6    2    6 2
   7    3    4 1
   8    3    8 2
   9    4    5 1
  10    4    7 2
  11    5   21 1
  12    5   22 1
  13    5   23 1
  14    8    9 1
  15    9   10 1
  16    9   24 1
  17   10   11 ar
  18   10   15 ar
  19   11   12 ar
  20   11   16 1
  21   12   13 ar
  22   12   25 1
  23   13   14 ar
  24   13   17 1
  25   14   15 ar
  26   14   26 1
  27   15   27 1

#	End of record

