#	Name: ASD04842011
#	Creating user name:	WinNT
#	Creation time:	15. 06. 2019 20:52

#	Modifying user name:	WinNT
#	Modification time:	15. 06. 2019 20:52

#	Program:	/corina/corina34_cracker 3.40 0067  02.08.2006

@<TRIPOS>MOLECULE
ASD04842011
  31   33    0    0    0
SMALL
NO_CHARGES


@<TRIPOS>ATOM
   1 N1            -0.0166     1.3758     0.0096 N.pl3   
   2 C2             0.0125     0.0137    -0.2098 C.2     
   3 C3             1.3040    -0.4146    -0.1505 C.2     
   4 C4             2.1163     0.7114     0.1146 C.ar    
   5 C5             3.5099     0.8713     0.2801 C.ar    
   6 C6             4.0428     2.0884     0.5321 C.ar    
   7 C7             3.2127     3.2260     0.6348 C.ar    
   8 C8             1.8129     3.0943     0.4733 C.ar    
   9 C9             1.2624     1.8186     0.2099 C.ar    
  10 C10            0.9969     4.2290     0.5771 C.ar    
  11 C11            1.5589     5.4450     0.8318 C.ar    
  12 C12            2.9347     5.5758     0.9907 C.ar    
  13 C13            3.7567     4.4923     0.8964 C.ar    
  14 C14           -1.1574    -0.8351    -0.4654 C.2     
  15 O15           -1.0145    -2.0290    -0.6460 O.2     
  16 O16           -2.3908    -0.2907    -0.4999 O.3     
  17 C17           -1.2196     2.2118     0.0201 C.3     
  18 C18           -1.6957     2.3892     1.4389 C.2     
  19 O19           -1.0922     1.8704     2.3480 O.2     
  20 O20           -2.7903     3.1234     1.6926 O.3     
  21 H21            1.6456    -1.4307    -0.2818 H       
  22 H22            4.1580     0.0107     0.2047 H       
  23 H23            5.1107     2.1909     0.6559 H       
  24 H24           -0.0726     4.1407     0.4554 H       
  25 H25            0.9278     6.3179     0.9110 H       
  26 H26            3.3574     6.5491     1.1919 H       
  27 H27            4.8231     4.6086     1.0217 H       
  28 H28           -3.1303    -0.8896    -0.6717 H       
  29 H29           -0.9885     3.1863    -0.4101 H       
  30 H30           -2.0013     1.7312    -0.5681 H       
  31 H31           -3.0570     3.2085     2.6182 H       
@<TRIPOS>BOND
   1    1    2 1
   2    1    9 1
   3    1   17 1
   4    2    3 2
   5    2   14 1
   6    3    4 1
   7    3   21 1
   8    4    5 ar
   9    4    9 ar
  10    5    6 ar
  11    5   22 1
  12    6    7 ar
  13    6   23 1
  14    7    8 ar
  15    7   13 ar
  16    8    9 ar
  17    8   10 ar
  18   10   11 ar
  19   10   24 1
  20   11   12 ar
  21   11   25 1
  22   12   13 ar
  23   12   26 1
  24   13   27 1
  25   14   15 2
  26   14   16 1
  27   16   28 1
  28   17   18 1
  29   17   29 1
  30   17   30 1
  31   18   19 2
  32   18   20 1
  33   20   31 1

#	End of record

