#	Name: ASD03092480
#	Creating user name:	WinNT
#	Creation time:	15. 06. 2019 20:32

#	Modifying user name:	WinNT
#	Modification time:	15. 06. 2019 20:32

#	Program:	/corina/corina34_cracker 3.40 0067  02.08.2006

@<TRIPOS>MOLECULE
ASD03092480
  55   58    0    0    0
SMALL
NO_CHARGES


@<TRIPOS>ATOM
   1 O1            -0.3888     1.0038     0.9771 O.3     
   2 N2            -0.3298    -0.1926     0.8126 N.2     
   3 C3             0.9108    -0.6024     0.7192 C.2     
   4 C4             1.7216     0.5590     0.8525 C.2     
   5 C5             0.8287     1.5625     1.0161 C.2     
   6 C6             1.3763    -1.9960     0.5155 C.2     
   7 O7             2.5655    -2.2354     0.4473 O.2     
   8 N8             0.4801    -2.9966     0.4061 N.am    
   9 C9             1.1424     3.0243     1.2049 C.3     
  10 C10            0.9398    -4.3730     0.2050 C.3     
  11 S11           -2.1192    -6.9137     0.6356 S.3     
  12 C12           -1.9131    -6.3233    -0.9554 C.2     
  13 N13           -0.9027    -5.5083    -1.0063 N.2     
  14 C14           -0.2509    -5.2923     0.1155 C.2     
  15 C15           -0.7383    -5.9644     1.1795 C.2     
  16 N16           -2.7082    -6.6649    -2.0342 N.3     
  17 C17           -1.9071    -6.7886    -3.2607 C.3     
  18 C18           -2.8141    -7.2250    -4.4143 C.3     
  19 O19           -3.8813    -6.2837    -4.5573 O.3     
  20 C20           -4.6824    -6.1387    -3.3815 C.3     
  21 C21           -3.7944    -5.6913    -2.2174 C.3     
  22 C22           -0.8093    -7.8334    -3.0507 C.3     
  23 C23            0.5263    -6.9934     4.5627 C.ar    
  24 C24            0.0306    -7.0883     3.2804 C.ar    
  25 C25           -0.2083    -5.9128     2.5560 C.ar    
  26 C26            0.0707    -4.6870     3.1750 C.ar    
  27 C27            0.5649    -4.6857     4.4614 C.ar    
  28 N28            0.7754    -5.8172     5.1082 N.ar    
  29 C29            0.8698    -3.3746     5.1390 C.3     
  30 C30            0.7819    -8.2493     5.3554 C.3     
  31 H31            2.7994     0.6245     0.8292 H       
  32 H32           -0.4693    -2.8055     0.4606 H       
  33 H33            0.2133     3.5847     1.3095 H       
  34 H34            1.7474     3.1531     2.1024 H       
  35 H35            1.6933     3.3925     0.3394 H       
  36 H36            1.5151    -4.4325    -0.7189 H       
  37 H37            1.5679    -4.6725     1.0440 H       
  38 H38           -1.4539    -5.8261    -3.4981 H       
  39 H39           -2.2360    -7.2628    -5.3376 H       
  40 H40           -3.2252    -8.2117    -4.2009 H       
  41 H41           -5.4555    -5.3908    -3.5578 H       
  42 H42           -5.1479    -7.0938    -3.1381 H       
  43 H43           -4.3899    -5.6346    -1.3062 H       
  44 H44           -3.3713    -4.7113    -2.4381 H       
  45 H45           -1.2642    -8.8009    -2.8385 H       
  46 H46           -0.2012    -7.9077    -3.9523 H       
  47 H47           -0.1803    -7.5358    -2.2117 H       
  48 H48           -0.1705    -8.0539     2.8404 H       
  49 H49           -0.0987    -3.7574     2.6518 H       
  50 H50           -0.0155    -3.0259     5.6707 H       
  51 H51            1.6876    -3.5128     5.8463 H       
  52 H52            1.1579    -2.6369     4.3901 H       
  53 H53            1.8023    -8.5892     5.1786 H       
  54 H54            0.6466    -8.0426     6.4171 H       
  55 H55            0.0816    -9.0243     5.0440 H       
@<TRIPOS>BOND
   1    1    2 1
   2    1    5 1
   3    2    3 2
   4    3    4 1
   5    3    6 1
   6    4    5 2
   7    4   31 1
   8    5    9 1
   9    6    7 2
  10    6    8 am
  11    8   10 1
  12    8   32 1
  13    9   33 1
  14    9   34 1
  15    9   35 1
  16   10   14 1
  17   10   36 1
  18   10   37 1
  19   11   12 1
  20   11   15 1
  21   12   13 2
  22   12   16 1
  23   13   14 1
  24   14   15 2
  25   15   25 1
  26   16   17 1
  27   16   21 1
  28   17   18 1
  29   17   22 1
  30   17   38 1
  31   18   19 1
  32   18   39 1
  33   18   40 1
  34   19   20 1
  35   20   21 1
  36   20   41 1
  37   20   42 1
  38   21   43 1
  39   21   44 1
  40   22   45 1
  41   22   46 1
  42   22   47 1
  43   23   24 ar
  44   23   28 ar
  45   23   30 1
  46   24   25 ar
  47   24   48 1
  48   25   26 ar
  49   26   27 ar
  50   26   49 1
  51   27   28 ar
  52   27   29 1
  53   29   50 1
  54   29   51 1
  55   29   52 1
  56   30   53 1
  57   30   54 1
  58   30   55 1

#	End of record

