#	Name: ASD02198688
#	Creating user name:	WinNT
#	Creation time:	15. 06. 2019 20:20

#	Modifying user name:	WinNT
#	Modification time:	15. 06. 2019 20:20

#	Program:	/corina/corina34_cracker 3.40 0067  02.08.2006

@<TRIPOS>MOLECULE
ASD02198688
  56   60    0    0    0
SMALL
NO_CHARGES


@<TRIPOS>ATOM
   1 C1            -0.0433     1.5016    -0.1150 C.2     
   2 C2            -0.0730     0.1619     0.0974 C.2     
   3 N3             1.0714    -0.5397     0.2598 N.pl3   
   4 N4             2.2359    -0.0049     0.2258 N.2     
   5 C5             2.4074     1.2845     0.0276 C.2     
   6 C6             1.2215     2.1357    -0.1605 C.2     
   7 C7             0.9799    -1.9188     0.4764 C.ar    
   8 C8             1.5810    -2.4921     1.5957 C.ar    
   9 C9             1.4862    -3.8590     1.8047 C.ar    
  10 C10            0.7973    -4.6499     0.9049 C.ar    
  11 C11            0.2005    -4.0818    -0.2063 C.ar    
  12 C12            0.2852    -2.7198    -0.4200 C.ar    
  13 C13            3.7643     1.8667    -0.0051 C.2     
  14 N14            4.3062     2.6069    -1.0182 N.pl3   
  15 N15            5.6081     2.9585    -0.6404 N.2     
  16 C16            5.8520     2.4588     0.5449 C.2     
  17 C17            4.7201     1.7711     0.9825 C.2     
  18 C18            3.6732     2.9513    -2.2192 C.ar    
  19 C19            3.8067     4.2345    -2.7330 C.ar    
  20 C20            3.1813     4.5711    -3.9175 C.ar    
  21 C21            2.4227     3.6318    -4.5917 C.ar    
  22 C22            2.2875     2.3533    -4.0825 C.ar    
  23 C23            2.9155     2.0087    -2.9016 C.ar    
  24 O24            1.3245     3.3388    -0.3480 O.2     
  25 C25            0.6965    -6.1359     1.1345 C.3     
  26 C26           -0.7772    -6.5377     1.2498 C.3     
  27 C27            1.3265    -6.8808    -0.0463 C.3     
  28 C28            1.1495    -8.3877     0.1579 C.3     
  29 O29           -0.2413    -8.6892     0.2884 O.3     
  30 C30           -0.8730    -8.0578     1.4039 C.3     
  31 O31            2.2585    -1.7129     2.4794 O.3     
  32 C32            2.8487    -2.3692     3.6032 C.3     
  33 H33           -0.9547     2.0652    -0.2496 H       
  34 H34           -1.0228    -0.3506     0.1378 H       
  35 H35            1.9512    -4.3061     2.6709 H       
  36 H36           -0.3364    -4.7044    -0.9066 H       
  37 H37           -0.1822    -2.2792    -1.2882 H       
  38 H38            6.7756     2.5649     1.0946 H       
  39 H39            4.6144     1.2515     1.9234 H       
  40 H40            4.3987     4.9687    -2.2067 H       
  41 H41            3.2845     5.5690    -4.3174 H       
  42 H42            1.9346     3.8974    -5.5178 H       
  43 H43            1.6938     1.6221    -4.6110 H       
  44 H44            2.8094     1.0100    -2.5044 H       
  45 H45            1.2205    -6.3992     2.0533 H       
  46 H46           -1.2194    -6.0546     2.1211 H       
  47 H47           -1.3104    -6.2284     0.3508 H       
  48 H48            0.8358    -6.5785    -0.9714 H       
  49 H49            2.3889    -6.6431    -0.1019 H       
  50 H50            1.5581    -8.9213    -0.7002 H       
  51 H51            1.6746    -8.6962     1.0619 H       
  52 H52           -0.3743    -8.3620     2.3242 H       
  53 H53           -1.9213    -8.3538     1.4435 H       
  54 H54            3.3574    -1.6344     4.2272 H       
  55 H55            2.0708    -2.8636     4.1851 H       
  56 H56            3.5680    -3.1102     3.2547 H       
@<TRIPOS>BOND
   1    1    2 2
   2    1    6 1
   3    1   33 1
   4    2    3 1
   5    2   34 1
   6    3    4 1
   7    3    7 1
   8    4    5 2
   9    5    6 1
  10    5   13 1
  11    6   24 2
  12    7    8 ar
  13    7   12 ar
  14    8    9 ar
  15    8   31 1
  16    9   10 ar
  17    9   35 1
  18   10   11 ar
  19   10   25 1
  20   11   12 ar
  21   11   36 1
  22   12   37 1
  23   13   14 1
  24   13   17 2
  25   14   15 1
  26   14   18 1
  27   15   16 2
  28   16   17 1
  29   16   38 1
  30   17   39 1
  31   18   19 ar
  32   18   23 ar
  33   19   20 ar
  34   19   40 1
  35   20   21 ar
  36   20   41 1
  37   21   22 ar
  38   21   42 1
  39   22   23 ar
  40   22   43 1
  41   23   44 1
  42   25   27 1
  43   25   26 1
  44   25   45 1
  45   26   30 1
  46   26   46 1
  47   26   47 1
  48   27   28 1
  49   27   48 1
  50   27   49 1
  51   28   29 1
  52   28   50 1
  53   28   51 1
  54   29   30 1
  55   30   52 1
  56   30   53 1
  57   31   32 1
  58   32   54 1
  59   32   55 1
  60   32   56 1

#	End of record

