#	Name: ASD03560001
#	Creating user name:	WinNT
#	Creation time:	15. 06. 2019 20:43

#	Modifying user name:	WinNT
#	Modification time:	15. 06. 2019 20:43

#	Program:	/corina/corina34_cracker 3.40 0067  02.08.2006

@<TRIPOS>MOLECULE
ASD03560001
 144  145    0    0    0
SMALL
NO_CHARGES


@<TRIPOS>ATOM
   1 C1            -0.5956     1.6633    -0.2795 C.3     
   2 C2            -0.2429     0.2004    -0.0033 C.3     
   3 C3            -1.4548    -0.6826    -0.3077 C.3     
   4 C4            -1.1021    -2.1456    -0.0316 C.3     
   5 C5            -2.3140    -3.0285    -0.3360 C.3     
   6 C6            -2.0034    -4.4741     0.0575 C.3     
   7 C7            -3.2518    -5.3314    -0.1293 C.3     
   8 N8            -4.3162    -4.9077     0.8003 N.am    
   9 C9            -4.0863    -4.9077     2.1394 C.2     
  10 O10           -2.9936    -5.1770     2.6065 O.2     
  11 C11           -5.2070    -4.5376     3.0842 C.3     
  12 C12           -4.6591    -3.5965     4.1665 C.3     
  13 C13           -5.8067    -2.9839     4.9273 C.ar    
  14 C14           -6.2319    -3.5530     6.1131 C.ar    
  15 C15           -7.2846    -2.9911     6.8110 C.ar    
  16 C16           -7.9117    -1.8598     6.3233 C.ar    
  17 C17           -7.4859    -1.2902     5.1379 C.ar    
  18 C18           -6.4304    -1.8496     4.4423 C.ar    
  19 N19           -5.7332    -5.7723     3.7264 N.am    
  20 C20           -4.9872    -7.0345     3.6724 C.3     
  21 C21           -6.9373    -5.6199     4.3495 C.2     
  22 O22           -7.6253    -4.6461     4.0751 O.2     
  23 C23           -7.4547    -6.5984     5.3718 C.3     
  24 C24           -6.4572    -6.7468     6.5170 C.3     
  25 C25           -5.0867    -7.1275     5.9535 C.3     
  26 C26           -4.3659    -5.8673     5.4705 C.3     
  27 C27           -4.2558    -7.8032     7.0462 C.3     
  28 N28           -7.7583    -7.8849     4.7289 N.am    
  29 C29           -8.4339    -8.8438     5.4240 C.2     
  30 O30           -8.5158    -8.8335     6.6306 O.2     
  31 C31           -9.1480    -9.9158     4.6364 C.3     
  32 C32          -10.4513   -10.2887     5.3500 C.3     
  33 C33          -11.2362   -11.2829     4.4919 C.3     
  34 C34          -12.4753   -11.7507     5.2579 C.3     
  35 C35          -11.6675   -10.6039     3.1904 C.3     
  36 N36           -8.2958   -11.1226     4.5087 N.am    
  37 C37           -7.4784   -11.1323     3.4125 C.2     
  38 O38           -7.3857   -10.1169     2.7400 O.2     
  39 C39           -6.7385   -12.3749     3.0075 C.3     
  40 N40           -6.4772   -12.3490     1.5570 N.am    
  41 C41           -5.6446   -11.4005     1.0537 C.2     
  42 O42           -5.1849   -10.5097     1.7447 O.2     
  43 C43           -5.2713   -11.4667    -0.4124 C.3     
  44 O44           -3.9612   -10.8948    -0.6192 O.3     
  45 C45           -3.7342    -9.5930    -0.4180 C.2     
  46 O46           -4.5856    -8.8655     0.0349 O.2     
  47 C47           -2.3866    -9.0138    -0.7753 C.3     
  48 N48           -2.5014    -7.5545    -0.9669 N.am    
  49 C49           -2.9328    -6.7879     0.0677 C.2     
  50 O50           -3.0597    -7.2699     1.1806 O.2     
  51 C51           -2.1393    -6.9765    -2.2744 C.3     
  52 C52           -1.3517    -9.3593     0.2930 C.3     
  53 C53           -6.3202   -10.7353    -1.2499 C.3     
  54 C54           -6.0136   -10.9071    -2.6794 C.1     
  55 C55           -5.7692   -11.0442    -3.8194 C.1     
  56 C56           -5.4254   -12.5038     3.7798 C.3     
  57 C57           -4.7601   -13.8379     3.4355 C.3     
  58 C58           -3.3889   -13.9130     4.1100 C.3     
  59 C59           -2.6716   -15.1897     3.6666 C.3     
  60 C60           -1.3004   -15.2648     4.3411 C.3     
  61 C61           -0.5831   -16.5415     3.8976 C.3     
  62 C62           -5.6370   -14.9886     3.9333 C.3     
  63 C63           -8.3519   -12.2073     5.4928 C.3     
  64 C64           -2.6294    -2.9636    -1.8317 C.3     
  65 H65            0.2678     2.2924    -0.0626 H       
  66 H66           -0.8750     1.7783    -1.3268 H       
  67 H67           -1.4308     1.9616     0.3542 H       
  68 H68            0.5923    -0.0979    -0.6370 H       
  69 H69            0.0365     0.0854     1.0440 H       
  70 H70           -2.2900    -0.3843     0.3260 H       
  71 H71           -1.7342    -0.5677    -1.3550 H       
  72 H72           -0.2669    -2.4438    -0.6652 H       
  73 H73           -0.8227    -2.2605     1.0157 H       
  74 H74           -3.1738    -2.6740     0.2325 H       
  75 H75           -1.2013    -4.8579    -0.5729 H       
  76 H76           -1.6925    -4.5077     1.1017 H       
  77 H77           -3.6300    -5.1779    -1.1487 H       
  78 H78           -5.1791    -4.6115     0.4502 H       
  79 H79           -6.0085    -4.0404     2.5394 H       
  80 H80           -4.0280    -4.1607     4.8530 H       
  81 H81           -4.0713    -2.8072     3.6979 H       
  82 H82           -5.7420    -4.4368     6.4942 H       
  83 H83           -7.6173    -3.4361     7.7371 H       
  84 H84           -8.7346    -1.4212     6.8682 H       
  85 H85           -7.9760    -0.4066     4.7567 H       
  86 H86           -6.0977    -1.4046     3.5162 H       
  87 H87           -4.2489    -7.0549     4.4741 H       
  88 H88           -5.6771    -7.8698     3.7925 H       
  89 H89           -4.4812    -7.1167     2.7104 H       
  90 H90           -8.3888    -6.1809     5.7853 H       
  91 H91           -6.3791    -5.8023     7.0554 H       
  92 H92           -6.7993    -7.5261     7.1980 H       
  93 H93           -5.2157    -7.8151     5.1176 H       
  94 H94           -3.5211    -6.1501     4.8425 H       
  95 H95           -5.0568    -5.2517     4.8946 H       
  96 H96           -4.0062    -5.3023     6.3305 H       
  97 H97           -4.7693    -8.7010     7.3902 H       
  98 H98           -3.2794    -8.0744     6.6447 H       
  99 H99           -4.1267    -7.1156     7.8820 H       
 100 H100          -7.5058    -8.0588     3.8070 H       
 101 H101          -9.3838    -9.5349     3.6399 H       
 102 H102         -10.2207   -10.7433     6.3135 H       
 103 H103         -11.0500    -9.3913     5.5057 H       
 104 H104         -10.6055   -12.1416     4.2620 H       
 105 H105         -13.1060   -10.8920     5.4878 H       
 106 H106         -13.0345   -12.4590     4.6466 H       
 107 H107         -12.1681   -12.2345     6.1851 H       
 108 H108         -12.2982    -9.7451     3.4203 H       
 109 H109         -10.7847   -10.2706     2.6447 H       
 110 H110         -12.2267   -11.3121     2.5790 H       
 111 H111          -7.3579   -13.2559     3.2214 H       
 112 H112          -6.8985   -13.0054     0.9668 H       
 113 H113          -5.2543   -12.5163    -0.7175 H       
 114 H114          -2.0675    -9.4657    -1.7255 H       
 115 H115          -3.0192    -6.9525    -2.9173 H       
 116 H116          -1.7653    -5.9626    -2.1324 H       
 117 H117          -1.3658    -7.5872    -2.7399 H       
 118 H118          -1.2600   -10.4425     0.3732 H       
 119 H119          -0.3876    -8.9325     0.0163 H       
 120 H120          -1.6687    -8.9495     1.2520 H       
 121 H121          -7.3066   -11.1476    -1.0377 H       
 122 H122          -6.3086    -9.6742    -1.0008 H       
 123 H123          -5.5505   -11.1667    -4.8391 H       
 124 H124          -4.7606   -11.6848     3.5054 H       
 125 H125          -5.6279   -12.4643     4.8501 H       
 126 H126          -4.6383   -13.9150     2.3551 H       
 127 H127          -2.7952   -13.0447     3.8241 H       
 128 H128          -3.5166   -13.9253     5.1924 H       
 129 H129          -3.2653   -16.0580     3.9525 H       
 130 H130          -2.5439   -15.1774     2.5841 H       
 131 H131          -0.7067   -14.3965     4.0551 H       
 132 H132          -1.4281   -15.2771     5.4235 H       
 133 H133           0.3937   -16.5950     4.3781 H       
 134 H134          -1.1768   -17.4097     4.1836 H       
 135 H135          -0.4554   -16.5291     2.8152 H       
 136 H136          -6.6139   -14.9351     3.4528 H       
 137 H137          -5.1631   -15.9390     3.6880 H       
 138 H138          -5.7589   -14.9115     5.0137 H       
 139 H139          -9.1012   -12.9373     5.1865 H       
 140 H140          -7.3774   -12.6915     5.5558 H       
 141 H141          -8.6189   -11.7998     6.4678 H       
 142 H142          -1.7696    -3.3182    -2.4001 H       
 143 H143          -3.4928    -3.5927    -2.0485 H       
 144 H144          -2.8507    -1.9338    -2.1120 H       
@<TRIPOS>BOND
   1    1    2 1
   2    1   65 1
   3    1   66 1
   4    1   67 1
   5    2    3 1
   6    2   68 1
   7    2   69 1
   8    3    4 1
   9    3   70 1
  10    3   71 1
  11    4    5 1
  12    4   72 1
  13    4   73 1
  14    5    6 1
  15    5   64 1
  16    5   74 1
  17    6    7 1
  18    6   75 1
  19    6   76 1
  20    7    8 1
  21    7   49 1
  22    7   77 1
  23    8    9 am
  24    8   78 1
  25    9   10 2
  26    9   11 1
  27   11   12 1
  28   11   19 1
  29   11   79 1
  30   12   13 1
  31   12   80 1
  32   12   81 1
  33   13   14 ar
  34   13   18 ar
  35   14   15 ar
  36   14   82 1
  37   15   16 ar
  38   15   83 1
  39   16   17 ar
  40   16   84 1
  41   17   18 ar
  42   17   85 1
  43   18   86 1
  44   19   20 1
  45   19   21 am
  46   20   87 1
  47   20   88 1
  48   20   89 1
  49   21   22 2
  50   21   23 1
  51   23   24 1
  52   23   28 1
  53   23   90 1
  54   24   25 1
  55   24   91 1
  56   24   92 1
  57   25   26 1
  58   25   27 1
  59   25   93 1
  60   26   94 1
  61   26   95 1
  62   26   96 1
  63   27   97 1
  64   27   98 1
  65   27   99 1
  66   28   29 am
  67   28  100 1
  68   29   30 2
  69   29   31 1
  70   31   32 1
  71   31   36 1
  72   31  101 1
  73   32   33 1
  74   32  102 1
  75   32  103 1
  76   33   34 1
  77   33   35 1
  78   33  104 1
  79   34  105 1
  80   34  106 1
  81   34  107 1
  82   35  108 1
  83   35  109 1
  84   35  110 1
  85   36   37 am
  86   36   63 1
  87   37   38 2
  88   37   39 1
  89   39   40 1
  90   39   56 1
  91   39  111 1
  92   40   41 am
  93   40  112 1
  94   41   42 2
  95   41   43 1
  96   43   44 1
  97   43   53 1
  98   43  113 1
  99   44   45 1
 100   45   46 2
 101   45   47 1
 102   47   48 1
 103   47   52 1
 104   47  114 1
 105   48   49 am
 106   48   51 1
 107   49   50 2
 108   51  115 1
 109   51  116 1
 110   51  117 1
 111   52  118 1
 112   52  119 1
 113   52  120 1
 114   53   54 1
 115   53  121 1
 116   53  122 1
 117   54   55 3
 118   55  123 1
 119   56   57 1
 120   56  124 1
 121   56  125 1
 122   57   58 1
 123   57   62 1
 124   57  126 1
 125   58   59 1
 126   58  127 1
 127   58  128 1
 128   59   60 1
 129   59  129 1
 130   59  130 1
 131   60   61 1
 132   60  131 1
 133   60  132 1
 134   61  133 1
 135   61  134 1
 136   61  135 1
 137   62  136 1
 138   62  137 1
 139   62  138 1
 140   63  139 1
 141   63  140 1
 142   63  141 1
 143   64  142 1
 144   64  143 1
 145   64  144 1

#	End of record

