#	Name: ASD01811112
#	Creating user name:	WinNT
#	Creation time:	15. 06. 2019 19:26

#	Modifying user name:	WinNT
#	Modification time:	15. 06. 2019 19:26

#	Program:	/corina/corina34_cracker 3.40 0067  02.08.2006

@<TRIPOS>MOLECULE
ASD01811112
  49   52    0    0    0
SMALL
NO_CHARGES


@<TRIPOS>ATOM
   1 C1            -0.6637     1.4725     0.0037 C.2     
   2 C2            -0.4077     0.1541    -0.0328 C.2     
   3 N3            -1.4204    -0.7579     0.0643 N.pl3   
   4 C4            -2.7090    -0.4178     0.1863 C.2     
   5 C5            -3.0747     0.9133     0.2231 C.2     
   6 C6            -2.0085     1.9192     0.1320 C.2     
   7 C7            -1.0779    -2.1820     0.0326 C.3     
   8 C8            -1.2003    -2.6968    -1.3785 C.ar    
   9 O9            -2.2708     3.1112     0.1582 O.2     
  10 C10           -4.4854     1.3106     0.3538 C.2     
  11 O11           -5.3512     0.4612     0.4315 O.2     
  12 O12           -4.8174     2.6164     0.3874 O.3     
  13 C13           -0.0796    -2.7666    -2.1861 C.ar    
  14 C14           -0.1861    -3.2378    -3.4791 C.ar    
  15 C15           -1.4249    -3.6433    -3.9702 C.ar    
  16 C16           -2.5504    -3.5709    -3.1525 C.ar    
  17 C17           -2.4319    -3.1031    -1.8594 C.ar    
  18 C18            0.4094     2.5252    -0.0785 C.3     
  19 C19            1.7035     1.9370    -0.6365 C.3     
  20 C20            2.0305     0.6652     0.1559 C.3     
  21 C21            0.9889    -0.3953    -0.1909 C.3     
  22 O22           -0.0332     3.5823    -0.9321 O.3     
  23 C23           -1.5455    -4.1506    -5.3604 C.2     
  24 C24           -0.4983    -4.2781    -6.2936 C.2     
  25 N25           -0.9979    -4.7589    -7.4012 N.2     
  26 N26           -2.3723    -4.9557    -7.2206 N.pl3   
  27 C27           -2.6898    -4.5834    -5.9643 C.2     
  28 C28           -3.3037    -5.4807    -8.2222 C.3     
  29 H29           -3.4647    -1.1862     0.2559 H       
  30 H30           -0.0541    -2.3173     0.3812 H       
  31 H31           -1.7585    -2.7338     0.6810 H       
  32 H32           -5.7568     2.8285     0.4743 H       
  33 H33            0.8803    -2.4516    -1.8045 H       
  34 H34            0.6895    -3.2916    -4.1091 H       
  35 H35           -3.5132    -3.8841    -3.5284 H       
  36 H36           -3.3038    -3.0465    -1.2246 H       
  37 H37            0.5973     2.9247     0.9181 H       
  38 H38            1.5714     1.6904    -1.6900 H       
  39 H39            2.5133     2.6581    -0.5255 H       
  40 H40            3.0237     0.3078    -0.1161 H       
  41 H41            1.9959     0.8786     1.2243 H       
  42 H42            1.1147    -1.2518     0.4714 H       
  43 H43            1.1335    -0.7162    -1.2225 H       
  44 H44            0.6072     4.2997    -1.0342 H       
  45 H45            0.5372    -4.0226    -6.1235 H       
  46 H46           -3.6732    -4.6155    -5.5189 H       
  47 H47           -3.3544    -6.5662    -8.1375 H       
  48 H48           -4.2938    -5.0565    -8.0553 H       
  49 H49           -2.9558    -5.2100    -9.2191 H       
@<TRIPOS>BOND
   1    1    2 2
   2    1   18 1
   3    1    6 1
   4    2    3 1
   5    2   21 1
   6    3    4 1
   7    3    7 1
   8    4    5 2
   9    4   29 1
  10    5    6 1
  11    5   10 1
  12    6    9 2
  13    7    8 1
  14    7   30 1
  15    7   31 1
  16    8   13 ar
  17    8   17 ar
  18   10   11 2
  19   10   12 1
  20   12   32 1
  21   13   14 ar
  22   13   33 1
  23   14   15 ar
  24   14   34 1
  25   15   16 ar
  26   15   23 1
  27   16   17 ar
  28   16   35 1
  29   17   36 1
  30   18   19 1
  31   18   22 1
  32   18   37 1
  33   19   20 1
  34   19   38 1
  35   19   39 1
  36   20   21 1
  37   20   40 1
  38   20   41 1
  39   21   42 1
  40   21   43 1
  41   22   44 1
  42   23   24 1
  43   23   27 2
  44   24   25 2
  45   24   45 1
  46   25   26 1
  47   26   27 1
  48   26   28 1
  49   27   46 1
  50   28   47 1
  51   28   48 1
  52   28   49 1

#	End of record

