#	Name: ASD01411204
#	Creating user name:	WinNT
#	Creation time:	15. 06. 2019 19:19

#	Modifying user name:	WinNT
#	Modification time:	15. 06. 2019 19:19

#	Program:	/corina/corina34_cracker 3.40 0067  02.08.2006

@<TRIPOS>MOLECULE
ASD01411204
  70   72    0    0    0
SMALL
NO_CHARGES


@<TRIPOS>ATOM
   1 C1            -0.5295    -0.0578    -1.7400 C.ar    
   2 C2            -0.2569    -1.4029    -1.7526 C.ar    
   3 C3             0.9853    -1.8810    -2.1645 C.ar    
   4 C4             1.9622    -0.9781    -2.5615 C.ar    
   5 C5             1.6943     0.3768    -2.5487 C.ar    
   6 C6             0.4520     0.8441    -2.1409 C.ar    
   7 P7            -1.4946    -2.6281    -1.2298 P.3     
   8 N8            -0.7005    -4.0596    -1.0445 N.2     
   9 C9             0.5037    -4.1936    -1.5096 C.2     
  10 N10            1.2263    -3.2535    -2.1782 N.pl3   
  11 C11            1.1564    -5.4981    -1.2908 C.2     
  12 C12            0.5992    -6.5599    -0.6460 C.2     
  13 C13            1.6300    -7.6651    -0.6655 C.3     
  14 N14            2.7944    -7.1193    -1.3733 N.am    
  15 C15            2.5040    -5.8577    -1.7384 C.2     
  16 O16           -2.1018    -2.2167     0.0557 O.2     
  17 O17           -2.6349    -2.7735    -2.3570 O.3     
  18 O18           -0.6276    -6.6146    -0.0987 O.3     
  19 O19            3.2544    -5.1200    -2.3491 O.2     
  20 C20           -3.4562    -1.6827    -2.7785 C.3     
  21 C21           -4.4291    -2.1639    -3.8569 C.3     
  22 C22            2.0156    -8.0514     0.7638 C.3     
  23 C23            0.7520    -8.3780     1.5623 C.3     
  24 C24            2.9297    -9.2779     0.7316 C.3     
  25 C25            2.7506    -6.8848     1.4268 C.3     
  26 N26            0.1872     2.2181    -2.1336 N.am    
  27 S27            0.1730     3.0510    -0.7023 S.o2    
  28 O28           -0.0099     4.4065    -1.0874 O.2     
  29 O29           -0.7976     2.3761     0.0862 O.2     
  30 C30            1.8342     2.8023    -0.0174 C.3     
  31 C31            4.0494    -7.8263    -1.6406 C.3     
  32 C32            3.9299    -8.5975    -2.9566 C.3     
  33 C33            5.2406    -9.3359    -3.2358 C.3     
  34 C34            5.0802   -10.2053    -4.4845 C.3     
  35 C35            6.3606    -8.3186    -3.4630 C.3     
  36 H36           -1.4996     0.2978    -1.4256 H       
  37 H37            2.9307    -1.3346    -2.8797 H       
  38 H38            2.4560     1.0773    -2.8579 H       
  39 H39            1.9741    -3.5663    -2.7110 H       
  40 H40            1.2401    -8.5329    -1.1974 H       
  41 H41           -1.1748    -5.8203    -0.1678 H       
  42 H42           -4.0182    -1.3006    -1.9264 H       
  43 H43           -2.8274    -0.8901    -3.1840 H       
  44 H44           -5.0556    -1.3318    -4.1784 H       
  45 H45           -3.8671    -2.5460    -4.7090 H       
  46 H46           -5.0579    -2.9565    -3.4514 H       
  47 H47            0.2284    -9.2091     1.0900 H       
  48 H48            1.0267    -8.6532     2.5806 H       
  49 H49            0.1008    -7.5042     1.5853 H       
  50 H50            3.9589    -8.9597     0.5657 H       
  51 H51            2.8617    -9.8068     1.6823 H       
  52 H52            2.6197    -9.9410    -0.0760 H       
  53 H53            2.0994    -6.0110     1.4498 H       
  54 H54            3.0253    -7.1600     2.4451 H       
  55 H55            3.6508    -6.6522     0.8579 H       
  56 H56            0.0120     2.6828    -2.9668 H       
  57 H57            2.5793     3.1154    -0.7488 H       
  58 H58            1.9452     3.3948     0.8908 H       
  59 H59            1.9763     1.7474     0.2173 H       
  60 H60            4.8638    -7.1056    -1.7145 H       
  61 H61            4.2538    -8.5235    -0.8281 H       
  62 H62            3.1155    -9.3182    -2.8828 H       
  63 H63            3.7255    -7.9002    -3.7691 H       
  64 H64            5.4906    -9.9672    -2.3831 H       
  65 H65            4.8301    -9.5739    -5.3371 H       
  66 H66            6.0139   -10.7313    -4.6834 H       
  67 H67            4.2822   -10.9300    -4.3226 H       
  68 H68            6.1105    -7.6873    -4.3156 H       
  69 H69            6.4749    -7.6992    -2.5734 H       
  70 H70            7.2943    -8.8446    -3.6619 H       
@<TRIPOS>BOND
   1    1    2 ar
   2    1    6 ar
   3    1   36 1
   4    2    3 ar
   5    2    7 1
   6    3    4 ar
   7    3   10 1
   8    4    5 ar
   9    4   37 1
  10    5    6 ar
  11    5   38 1
  12    6   26 1
  13    7    8 1
  14    7   16 2
  15    7   17 1
  16    8    9 2
  17    9   10 1
  18    9   11 1
  19   10   39 1
  20   11   12 2
  21   11   15 1
  22   12   13 1
  23   12   18 1
  24   13   14 1
  25   13   22 1
  26   13   40 1
  27   14   15 am
  28   14   31 1
  29   15   19 2
  30   17   20 1
  31   18   41 1
  32   20   21 1
  33   20   42 1
  34   20   43 1
  35   21   44 1
  36   21   45 1
  37   21   46 1
  38   22   23 1
  39   22   24 1
  40   22   25 1
  41   23   47 1
  42   23   48 1
  43   23   49 1
  44   24   50 1
  45   24   51 1
  46   24   52 1
  47   25   53 1
  48   25   54 1
  49   25   55 1
  50   26   27 am
  51   26   56 1
  52   27   28 2
  53   27   29 2
  54   27   30 1
  55   30   57 1
  56   30   58 1
  57   30   59 1
  58   31   32 1
  59   31   60 1
  60   31   61 1
  61   32   33 1
  62   32   62 1
  63   32   63 1
  64   33   34 1
  65   33   35 1
  66   33   64 1
  67   34   65 1
  68   34   66 1
  69   34   67 1
  70   35   68 1
  71   35   69 1
  72   35   70 1

#	End of record

