#	Name: ASD07300349
#	Creating user name:	WinNT
#	Creation time:	15. 06. 2019 21:09

#	Modifying user name:	WinNT
#	Modification time:	15. 06. 2019 21:09

#	Program:	/corina/corina34_cracker 3.40 0067  02.08.2006

@<TRIPOS>MOLECULE
ASD07300349
  50   54    0    0    0
SMALL
NO_CHARGES


@<TRIPOS>ATOM
   1 C1            -0.8616     0.9889    -0.1295 C.ar    
   2 C2            -1.0251    -0.3818    -0.3527 C.ar    
   3 C3             0.0598    -1.2307    -0.1928 C.ar    
   4 C4             1.2749    -0.6785     0.1858 C.ar    
   5 C5             1.3647     0.6856     0.3896 C.ar    
   6 N6             0.3167     1.4705     0.2301 N.ar    
   7 C7            -2.9757     0.6166    -0.7003 C.2     
   8 N8            -2.0999     1.5789    -0.3560 N.am    
   9 N9            -2.3550    -0.5785    -0.7126 N.am    
  10 O10           -4.1493     0.7992    -0.9645 O.2     
  11 C11           -2.3882     2.9472    -0.2445 C.ar    
  12 C12           -3.6723     3.4093    -0.4993 C.ar    
  13 C13           -3.9556     4.7562    -0.3890 C.ar    
  14 C14           -2.9573     5.6477    -0.0235 C.ar    
  15 C15           -1.6737     5.1864     0.2309 C.ar    
  16 C16           -1.3908     3.8390     0.1263 C.ar    
  17 O17           -3.2368     6.9738     0.0851 O.3     
  18 C18           -4.9933     8.6893     2.6116 C.ar    
  19 C19           -4.9099     7.3783     3.1139 C.ar    
  20 C20           -5.4831     7.0912     4.3556 C.ar    
  21 C21           -6.1105     8.1176     5.0379 C.ar    
  22 C22           -6.1524     9.3839     4.4786 C.ar    
  23 N23           -5.6054     9.6339     3.3060 N.ar    
  24 C24           -3.9127     7.3929     1.1793 C.2     
  25 N25           -4.3541     8.6677     1.3872 N.pl3   
  26 N26           -4.2355     6.6379     2.1972 N.2     
  27 C27           -4.1817     9.8041     0.4788 C.3     
  28 C28            2.4847    -1.5572     0.3736 C.3     
  29 C29           -2.9749    -1.8650    -1.0398 C.3     
  30 C30           -3.5387    -2.4981     0.2338 C.3     
  31 H31           -0.0386    -2.2934    -0.3584 H       
  32 H32            2.3101     1.1167     0.6844 H       
  33 H33           -4.4494     2.7155    -0.7842 H       
  34 H34           -4.9544     5.1158    -0.5876 H       
  35 H35           -0.8968     5.8808     0.5147 H       
  36 H36           -0.3928     3.4793     0.3290 H       
  37 H37           -5.4377     6.0953     4.7708 H       
  38 H38           -6.5650     7.9328     6.0000 H       
  39 H39           -6.6435    10.1828     5.0143 H       
  40 H40           -3.2499    10.3187     0.7135 H       
  41 H41           -4.1494     9.4452    -0.5499 H       
  42 H42           -5.0174    10.4938     0.5970 H       
  43 H43            3.0249    -1.6381    -0.5696 H       
  44 H44            3.1372    -1.1205     1.1297 H       
  45 H45            2.1670    -2.5486     0.6966 H       
  46 H46           -3.7819    -1.7078    -1.7554 H       
  47 H47           -2.2274    -2.5282    -1.4750 H       
  48 H48           -2.7317    -2.6552     0.9495 H       
  49 H49           -4.2862    -1.8348     0.6691 H       
  50 H50           -4.0000    -3.4552    -0.0097 H       
@<TRIPOS>BOND
   1    1    2 ar
   2    1    6 ar
   3    1    8 1
   4    2    3 ar
   5    2    9 1
   6    3    4 ar
   7    3   31 1
   8    4    5 ar
   9    4   28 1
  10    5    6 ar
  11    5   32 1
  12    7    8 am
  13    7    9 am
  14    7   10 2
  15    8   11 1
  16    9   29 1
  17   11   12 ar
  18   11   16 ar
  19   12   13 ar
  20   12   33 1
  21   13   14 ar
  22   13   34 1
  23   14   15 ar
  24   14   17 1
  25   15   16 ar
  26   15   35 1
  27   16   36 1
  28   17   24 1
  29   18   19 ar
  30   18   23 ar
  31   18   25 1
  32   19   20 ar
  33   19   26 1
  34   20   21 ar
  35   20   37 1
  36   21   22 ar
  37   21   38 1
  38   22   23 ar
  39   22   39 1
  40   24   25 1
  41   24   26 2
  42   25   27 1
  43   27   40 1
  44   27   41 1
  45   27   42 1
  46   28   43 1
  47   28   44 1
  48   28   45 1
  49   29   30 1
  50   29   46 1
  51   29   47 1
  52   30   48 1
  53   30   49 1
  54   30   50 1

#	End of record

