#	Name: ASD02030166
#	Creating user name:	WinNT
#	Creation time:	15. 06. 2019 20:14

#	Modifying user name:	WinNT
#	Modification time:	15. 06. 2019 20:14

#	Program:	/corina/corina34_cracker 3.40 0067  02.08.2006

@<TRIPOS>MOLECULE
ASD02030166
  60   63    0    0    0
SMALL
NO_CHARGES


@<TRIPOS>ATOM
   1 N1            -0.2214     1.3888    -0.1445 N.am    
   2 C2            -0.0828    -0.0518     0.1112 C.3     
   3 C3            -0.9978    -0.4319     1.2819 C.3     
   4 N4            -2.3374     0.1168     1.0284 N.am    
   5 C5            -2.4760     1.5573     0.7726 C.3     
   6 C6            -1.5617     1.9384    -0.3926 C.3     
   7 C7             0.8606     2.1924    -0.1460 C.2     
   8 C8             2.1847     1.6511     0.2323 C.2     
   9 N9             2.4867     0.3660     0.4741 N.2     
  10 N10            3.3014     2.3373     0.3923 N.2     
  11 N11            4.2305     1.5064     0.7197 N.pl3   
  12 N12            3.7412     0.3169     0.7696 N.2     
  13 O13            0.7486     3.3617    -0.4581 O.2     
  14 C14           -3.4194    -0.6868     1.0299 C.2     
  15 C15           -4.7713    -0.1066     0.8839 C.ar    
  16 O16           -3.2836    -1.8887     1.1512 O.2     
  17 C17           -1.4808     3.4621    -0.5047 C.3     
  18 C18           -2.1160     1.3531    -1.6929 C.3     
  19 C19            5.5664     1.8448     0.9773 C.ar    
  20 C20            6.4797     0.8578     1.3228 C.ar    
  21 C21            7.7953     1.1941     1.5755 C.ar    
  22 C22            8.2030     2.5123     1.4847 C.ar    
  23 C23            7.2957     3.4976     1.1407 C.ar    
  24 C24            5.9800     3.1667     0.8817 C.ar    
  25 C25           -5.7660    -0.8099     0.2031 C.ar    
  26 C26           -7.0257    -0.2627     0.0704 C.ar    
  27 C27           -7.3036     0.9802     0.6105 C.ar    
  28 C28           -6.3217     1.6830     1.2863 C.ar    
  29 C29           -5.0600     1.1446     1.4315 C.ar    
  30 C30           -8.1010    -1.0204    -0.6649 C.3     
  31 C31           -9.2770    -1.2812     0.2784 C.3     
  32 C32           -8.5798    -0.1949    -1.8608 C.3     
  33 H33           -0.3748    -0.6109    -0.7778 H       
  34 H34            0.9520    -0.2801     0.3666 H       
  35 H35           -1.0564    -1.5173     1.3629 H       
  36 H36           -0.6006    -0.0144     2.2072 H       
  37 H37           -3.5107     1.7857     0.5173 H       
  38 H38           -2.1840     2.1165     1.6616 H       
  39 H39           -0.9736     3.8646     0.3722 H       
  40 H40           -0.9237     3.7314    -1.4021 H       
  41 H41           -2.4874     3.8760    -0.5641 H       
  42 H42           -3.1155     1.7490    -1.8725 H       
  43 H43           -1.4627     1.6260    -2.5217 H       
  44 H44           -2.1646     0.2672    -1.6109 H       
  45 H45            6.1618    -0.1719     1.3942 H       
  46 H46            8.5061     0.4269     1.8447 H       
  47 H47            9.2322     2.7730     1.6831 H       
  48 H48            7.6171     4.5263     1.0709 H       
  49 H49            5.2719     3.9366     0.6129 H       
  50 H50           -5.5502    -1.7802    -0.2193 H       
  51 H51           -8.2912     1.4041     0.5038 H       
  52 H52           -6.5450     2.6531     1.7053 H       
  53 H53           -4.2945     1.6941     1.9592 H       
  54 H54           -7.6998    -1.9708    -1.0168 H       
  55 H55          -10.0548    -1.8293    -0.2534 H       
  56 H56           -8.9359    -1.8693     1.1304 H       
  57 H57           -9.6782    -0.3308     0.6303 H       
  58 H58           -7.7419    -0.0091    -2.5328 H       
  59 H59           -9.3575    -0.7429    -2.3926 H       
  60 H60           -8.9810     0.7556    -1.5089 H       
@<TRIPOS>BOND
   1    1    2 1
   2    1    7 am
   3    1    6 1
   4    2    3 1
   5    2   33 1
   6    2   34 1
   7    3    4 1
   8    3   35 1
   9    3   36 1
  10    4    5 1
  11    4   14 am
  12    5    6 1
  13    5   37 1
  14    5   38 1
  15    6   17 1
  16    6   18 1
  17    7    8 1
  18    7   13 2
  19    8    9 1
  20    8   10 2
  21    9   12 2
  22   10   11 1
  23   11   12 1
  24   11   19 1
  25   14   15 1
  26   14   16 2
  27   15   25 ar
  28   15   29 ar
  29   17   39 1
  30   17   40 1
  31   17   41 1
  32   18   42 1
  33   18   43 1
  34   18   44 1
  35   19   20 ar
  36   19   24 ar
  37   20   21 ar
  38   20   45 1
  39   21   22 ar
  40   21   46 1
  41   22   23 ar
  42   22   47 1
  43   23   24 ar
  44   23   48 1
  45   24   49 1
  46   25   26 ar
  47   25   50 1
  48   26   27 ar
  49   26   30 1
  50   27   28 ar
  51   27   51 1
  52   28   29 ar
  53   28   52 1
  54   29   53 1
  55   30   31 1
  56   30   32 1
  57   30   54 1
  58   31   55 1
  59   31   56 1
  60   31   57 1
  61   32   58 1
  62   32   59 1
  63   32   60 1

#	End of record

