#	Name: ASD04570046
#	Creating user name:	WinNT
#	Creation time:	15. 06. 2019 20:49

#	Modifying user name:	WinNT
#	Modification time:	15. 06. 2019 20:49

#	Program:	/corina/corina34_cracker 3.40 0067  02.08.2006

@<TRIPOS>MOLECULE
ASD04570046
 327  330    0    0    0
SMALL
NO_CHARGES


@<TRIPOS>ATOM
   1 C1            -4.6249     5.4393    -2.0383 C.3     
   2 C2            -4.4170     3.9307    -1.8913 C.3     
   3 C3            -5.7763     3.2293    -1.8588 C.3     
   4 C4            -5.5684     1.7206    -1.7117 C.3     
   5 C5            -6.9278     1.0192    -1.6793 C.3     
   6 C6            -6.7199    -0.4894    -1.5322 C.3     
   7 C7            -8.0793    -1.1908    -1.4997 C.3     
   8 C8            -7.8713    -2.6995    -1.3527 C.3     
   9 C9            -9.2307    -3.4009    -1.3202 C.3     
  10 C10           -9.0228    -4.9095    -1.1732 C.3     
  11 C11          -10.3822    -5.6109    -1.1407 C.3     
  12 C12          -10.1743    -7.1196    -0.9937 C.3     
  13 C13          -11.5336    -7.8210    -0.9612 C.3     
  14 C14          -11.3257    -9.3296    -0.8141 C.3     
  15 C15          -12.6647   -10.0205    -0.7821 C.2     
  16 N16          -12.7285   -11.3609    -0.6576 N.am    
  17 O17          -13.6848    -9.3702    -0.8685 O.2     
  18 C18          -14.0301   -12.0325    -0.6265 C.3     
  19 C19          -13.8253   -13.5185    -0.4817 C.2     
  20 N20          -14.8898   -14.3436    -0.4303 N.am    
  21 O21          -12.7027   -13.9719    -0.4114 O.2     
  22 C22          -14.6907   -15.7882    -0.2895 C.3     
  23 C23          -16.0296   -16.4790    -0.2575 C.2     
  24 N24          -16.0935   -17.8195    -0.1330 N.am    
  25 O25          -17.0497   -15.8288    -0.3438 O.2     
  26 C26          -17.3951   -18.4911    -0.1019 C.3     
  27 C27          -17.2366   -19.9157    -0.5673 C.2     
  28 O28          -16.1440   -20.3292    -0.8929 O.2     
  29 N29          -18.3091   -20.7301    -0.6217 N.am    
  30 C30          -17.9411   -18.4792     1.3273 C.3     
  31 C31          -18.2154   -17.0585     1.7485 C.ar    
  32 C32          -19.4573   -16.4972     1.5157 C.ar    
  33 C33          -18.1550   -22.1150    -1.0741 C.3     
  34 C34          -17.7318   -22.9927     0.1055 C.3     
  35 C35          -19.4664   -22.6122    -1.6252 C.2     
  36 O36          -20.4345   -21.8818    -1.6388 O.2     
  37 N37          -19.5636   -23.8687    -2.1031 N.am    
  38 C38          -16.3429   -22.5669     0.5857 C.3     
  39 C39          -15.9261   -23.4314     1.7475 C.2     
  40 N40          -14.7301   -23.2367     2.3374 N.am    
  41 C41          -20.8385   -24.3521    -2.6388 C.3     
  42 C42          -20.9634   -23.9408    -4.1072 C.3     
  43 C43          -20.8911   -25.8544    -2.5318 C.2     
  44 O44          -19.9557   -26.4615    -2.0549 O.2     
  45 N45          -21.9776   -26.5233    -2.9660 N.am    
  46 C46          -22.0287   -27.9837    -2.8619 C.3     
  47 C47          -21.3406   -28.6061    -4.0785 C.3     
  48 C48          -23.4660   -28.4338    -2.8129 C.2     
  49 C49          -19.8525   -28.2508    -4.0600 C.3     
  50 C50          -19.1644   -28.8732    -5.2765 C.3     
  51 C51          -19.7112   -15.1950     1.9008 C.ar    
  52 C52          -18.7188   -14.4505     2.5217 C.ar    
  53 C53          -17.4735   -15.0161     2.7542 C.ar    
  54 C54          -17.2264   -16.3205     2.3722 C.ar    
  55 O55          -18.9660   -13.1692     2.9011 O.3     
  56 O56          -16.6670   -24.3025     2.1517 O.2     
  57 C57          -17.6763   -28.5179    -5.2580 C.3     
  58 N58          -17.0156   -29.1155    -6.4261 N.3     
  59 C59           -3.2655     6.1407    -2.0708 C.3     
  60 H60          -11.9126   -11.8810    -0.5886 H       
  61 C61          -21.0354   -22.4156    -4.2052 C.3     
  62 C62          -21.1603   -22.0043    -5.6736 C.3     
  63 C63          -21.2323   -20.4791    -5.7716 C.3     
  64 N64          -21.3523   -20.0842    -7.1815 N.3     
  65 N65          -23.7584   -29.7460    -2.7165 N.am    
  66 O66          -24.3598   -27.6153    -2.8603 O.2     
  67 C67          -25.1557   -30.1835    -2.6689 C.3     
  68 C68          -25.2554   -31.6016    -3.1692 C.2     
  69 C69          -25.6628   -30.1147    -1.2270 C.3     
  70 C70          -25.6789   -28.6574    -0.7611 C.3     
  71 C71          -26.6978   -27.8693    -1.5866 C.3     
  72 C72          -26.0662   -28.5991     0.7179 C.3     
  73 N73          -26.4535   -32.2171    -3.2157 N.am    
  74 O74          -24.2575   -32.1888    -3.5301 O.2     
  75 C75          -26.5504   -33.5956    -3.7021 C.3     
  76 C76          -27.7735   -34.2509    -3.1143 C.2     
  77 C77          -26.6576   -33.5915    -5.2283 C.3     
  78 N78          -28.0674   -35.5294    -3.4235 N.am    
  79 O79          -28.4934   -33.6278    -2.3630 O.2     
  80 C80          -25.3630   -33.0404    -5.8291 C.3     
  81 C81          -25.4703   -33.0363    -7.3554 C.3     
  82 N82          -24.2306   -32.5085    -7.9306 N.pl3   
  83 C83          -24.0937   -32.4092    -9.2950 C.2     
  84 N84          -25.1201   -32.8051   -10.1196 N.pl3   
  85 N85          -22.9907   -31.9396    -9.8068 N.2     
  86 C86          -29.2236   -36.2877    -2.9237 C.3     
  87 C87          -29.1340   -37.7072    -3.5226 C.3     
  88 C88          -27.6288   -37.8417    -3.8743 C.3     
  89 C89          -27.2863   -36.3970    -4.3238 C.3     
  90 C90          -30.5021   -35.6243    -3.3668 C.2     
  91 O91          -30.4604   -34.6139    -4.0364 O.2     
  92 N92          -34.3134   -33.5431    -3.0094 N.am    
  93 C93          -33.1735   -34.2311    -2.8004 C.2     
  94 C94          -33.0095   -35.6119    -3.3814 C.3     
  95 N95          -31.6917   -36.1536    -3.0189 N.am    
  96 C96          -34.0734   -36.5602    -2.7893 C.3     
  97 C97          -33.2927   -37.8888    -2.6089 C.3     
  98 C98          -31.8870   -37.3723    -2.2126 C.3     
  99 O99          -32.2797   -33.7390    -2.1448 O.2     
 100 C100         -34.4728   -32.2008    -2.4446 C.3     
 101 C101         -35.4692   -31.4249    -3.2669 C.2     
 102 C102         -34.9757   -32.3101    -1.0037 C.3     
 103 C103         -33.9694   -33.1073    -0.1714 C.3     
 104 N104         -35.5569   -30.0866    -3.1329 N.am    
 105 O105         -36.1922   -32.0046    -4.0492 O.2     
 106 O106         -33.8615   -38.6792    -1.5630 O.3     
 107 O107         -35.1214   -31.0011    -0.4494 O.3     
 108 C108         -36.4435   -29.3191    -4.0110 C.3     
 109 C109         -37.0425   -28.1708    -3.2405 C.2     
 110 C110         -35.6423   -28.7756    -5.1957 C.3     
 111 C111         -35.1618   -29.9233    -6.0460 C.2     
 112 O112         -34.3245   -29.6953    -7.0700 O.3     
 113 N113         -37.8956   -27.3231    -3.8490 N.am    
 114 O114         -35.5303   -31.0486    -5.8060 O.2     
 115 O115         -36.7570   -28.0094    -2.0729 O.2     
 116 C116         -38.4779   -26.2068    -3.1000 C.3     
 117 C117         -38.8617   -25.1066    -4.0557 C.2     
 118 C118         -39.7220   -26.6889    -2.3512 C.3     
 119 C119         -39.3144   -27.7169    -1.2938 C.3     
 120 C120         -40.5585   -28.1990    -0.5450 C.3     
 121 C121         -40.1509   -29.2270     0.5123 C.3     
 122 N122         -41.3454   -29.6898     1.2313 N.3     
 123 N123         -39.4203   -23.9725    -3.5884 N.am    
 124 O124         -38.6679   -25.2416    -5.2453 O.2     
 125 C125         -39.7934   -22.9030    -4.5174 C.3     
 126 C126         -40.8937   -22.0713    -3.9102 C.2     
 127 C127         -38.5762   -22.0172    -4.7907 C.3     
 128 C128         -37.5221   -22.8195    -5.5091 C.ar    
 129 C129         -37.5109   -22.8638    -6.8910 C.ar    
 130 N130         -41.3997   -21.0233    -4.5901 N.am    
 131 O131         -41.3239   -22.3451    -2.8098 O.2     
 132 C132         -36.5643   -23.5056    -4.7853 C.ar    
 133 C133         -35.5967   -24.2415    -5.4415 C.ar    
 134 C134         -35.5865   -24.2918    -6.8279 C.ar    
 135 C135         -36.5457   -23.5986    -7.5519 C.ar    
 136 C136         -42.4694   -20.2149    -3.9998 C.3     
 137 O137         -34.6354   -25.0147    -7.4758 O.3     
 138 C138         -42.4413   -18.8315    -4.5969 C.2     
 139 C139         -43.8220   -20.8684    -4.2901 C.3     
 140 N140         -43.3404   -17.9085    -4.2016 N.am    
 141 O141         -41.6097   -18.5488    -5.4332 O.2     
 142 C142         -43.3131   -16.5637    -4.7822 C.3     
 143 C143         -44.0906   -16.5580    -6.0731 C.2     
 144 C144         -43.9442   -15.5724    -3.8024 C.3     
 145 C145         -43.0843   -15.4858    -2.5398 C.3     
 146 C146         -41.7188   -14.8927    -2.8925 C.3     
 147 N147         -44.2024   -15.4206    -6.7874 N.am    
 148 C148         -43.7783   -14.5915    -1.5105 C.3     
 149 O149         -44.6158   -17.5769    -6.4692 O.2     
 150 C150         -43.8978   -22.2211    -3.5794 C.3     
 151 C151         -45.2505   -22.8746    -3.8697 C.3     
 152 N152         -45.3231   -24.1699    -3.1891 N.pl3   
 153 C153         -46.4528   -24.9449    -3.3050 C.2     
 154 N154         -46.5209   -26.1605    -2.6663 N.pl3   
 155 N155         -47.4591   -24.5272    -4.0203 N.2     
 156 H156          -5.1613     5.6435    -2.9649 H       
 157 H157          -5.2050     5.8102    -1.1933 H       
 158 H158          -3.8368     3.5598    -2.7363 H       
 159 H159          -3.8805     3.7264    -0.9647 H       
 160 H160          -6.3564     3.6002    -1.0138 H       
 161 H161          -6.3128     3.4335    -2.7854 H       
 162 H162          -4.9883     1.3497    -2.5567 H       
 163 H163          -5.0320     1.5164    -0.7851 H       
 164 H164          -7.5079     1.3901    -0.8343 H       
 165 H165          -7.4642     1.2235    -2.6059 H       
 166 H166          -6.1398    -0.8603    -2.3772 H       
 167 H167          -6.1834    -0.6937    -0.6056 H       
 168 H168          -8.6594    -0.8199    -0.6548 H       
 169 H169          -8.6157    -0.9866    -2.4264 H       
 170 H170          -7.2912    -3.0704    -2.1977 H       
 171 H171          -7.3349    -2.9037    -0.4261 H       
 172 H172          -9.8108    -3.0300    -0.4752 H       
 173 H173          -9.7672    -3.1966    -2.2468 H       
 174 H174          -8.4427    -5.2804    -2.0182 H       
 175 H175          -8.4863    -5.1138    -0.2466 H       
 176 H176         -10.9623    -5.2400    -0.2957 H       
 177 H177         -10.9186    -5.4067    -2.0673 H       
 178 H178          -9.5941    -7.4905    -1.8386 H       
 179 H179          -9.6378    -7.3238    -0.0670 H       
 180 H180         -12.1137    -7.4501    -0.1162 H       
 181 H181         -12.0701    -7.6167    -1.8878 H       
 182 H182         -10.7456    -9.7005    -1.6591 H       
 183 H183         -10.7893    -9.5339     0.1125 H       
 184 H184         -14.6102   -11.6617     0.2185 H       
 185 H185         -14.5666   -11.8283    -1.5531 H       
 186 H186         -15.7877   -13.9810    -0.4865 H       
 187 H187         -14.1106   -16.1591    -1.1345 H       
 188 H188         -14.1543   -15.9924     0.6371 H       
 189 H189         -15.2776   -18.3396    -0.0639 H       
 190 H190         -18.0892   -17.9689    -0.7603 H       
 191 H191         -19.1830   -20.3993    -0.3612 H       
 192 H192         -18.8657   -19.0551     1.3679 H       
 193 H193         -17.2072   -18.9225     2.0003 H       
 194 H194         -20.2294   -17.0771     1.0320 H       
 195 H195         -17.3932   -22.1603    -1.8524 H       
 196 H196         -18.4483   -22.8784     0.9189 H       
 197 H197         -17.7033   -24.0358    -0.2097 H       
 198 H198         -18.7893   -24.4529    -2.0922 H       
 199 H199         -15.6264   -22.6812    -0.2277 H       
 200 H200         -16.3715   -21.5238     0.9008 H       
 201 H201         -14.1376   -22.5401     2.0142 H       
 202 H202         -14.4618   -23.7932     3.0853 H       
 203 H203         -21.6600   -23.9183    -2.0688 H       
 204 H204         -20.0954   -24.2998    -4.6602 H       
 205 H205         -21.8691   -24.3752    -4.5305 H       
 206 H206         -22.7257   -26.0378    -3.3474 H       
 207 H207         -21.5173   -28.3014    -1.9533 H       
 208 H208         -21.4559   -29.6895    -4.0464 H       
 209 H209         -21.7951   -28.2192    -4.9905 H       
 210 H210         -19.7372   -27.1674    -4.0921 H       
 211 H211         -19.3979   -28.6377    -3.1480 H       
 212 H212         -19.2797   -29.9566    -5.2445 H       
 213 H213         -19.6190   -28.4863    -6.1886 H       
 214 H214         -20.6813   -14.7569     1.7184 H       
 215 H215         -16.6993   -14.4385     3.2373 H       
 216 H216         -16.2573   -16.7613     2.5533 H       
 217 H217         -19.3153   -13.0852     3.7989 H       
 218 H218         -17.5610   -27.4345    -5.2901 H       
 219 H219         -17.2217   -28.9049    -4.3460 H       
 220 H220         -16.0310   -28.8951    -6.4367 H       
 221 H221         -17.1631   -30.1133    -6.4538 H       
 222 H222          -3.4136     7.2155    -2.1755 H       
 223 H223          -2.7290     5.9365    -1.1442 H       
 224 H224          -2.6854     5.7698    -2.9158 H       
 225 H225         -21.9034   -22.0566    -3.6522 H       
 226 H226         -20.1298   -21.9812    -3.7820 H       
 227 H227         -20.2924   -22.3633    -6.2266 H       
 228 H228         -22.0660   -22.4387    -6.0968 H       
 229 H229         -22.1003   -20.1201    -5.2186 H       
 230 H230         -20.3267   -20.0447    -5.3484 H       
 231 H231         -21.4016   -19.0806    -7.2729 H       
 232 H232         -20.5921   -20.4601    -7.7282 H       
 233 H233         -23.0436   -30.4006    -2.6786 H       
 234 H234         -25.7620   -29.5325    -3.2987 H       
 235 H235         -26.6721   -30.5233    -1.1769 H       
 236 H236         -25.0034   -30.6952    -0.5818 H       
 237 H237         -24.6885   -28.2223    -0.8947 H       
 238 H238         -27.6882   -28.3044    -1.4529 H       
 239 H239         -26.7093   -26.8311    -1.2546 H       
 240 H240         -26.4219   -27.9108    -2.6402 H       
 241 H241         -25.3403   -29.1606     1.3061 H       
 242 H242         -26.0777   -27.5610     1.0499 H       
 243 H243         -27.0566   -29.0343     0.8516 H       
 244 H244         -27.2516   -31.7474    -2.9271 H       
 245 H245         -25.6613   -34.1502    -3.4019 H       
 246 H246         -26.8188   -34.6092    -5.5840 H       
 247 H247         -27.4952   -32.9636    -5.5320 H       
 248 H248         -25.2018   -32.0227    -5.4735 H       
 249 H249         -24.5254   -33.6683    -5.5255 H       
 250 H250         -25.6314   -34.0539    -7.7110 H       
 251 H251         -26.3079   -32.4083    -7.6590 H       
 252 H252         -23.5064   -32.2292    -7.3489 H       
 253 H253         -25.9409   -33.1545    -9.7387 H       
 254 H254         -25.0235   -32.7350   -11.0822 H       
 255 H255         -22.8941   -31.8695   -10.7695 H       
 256 H256         -29.1893   -36.3416    -1.8356 H       
 257 H257         -29.4263   -38.4557    -2.7861 H       
 258 H258         -29.7482   -37.7868    -4.4196 H       
 259 H259         -27.0473   -38.1302    -2.9986 H       
 260 H260         -27.4799   -38.5486    -4.6905 H       
 261 H261         -27.5836   -36.2419    -5.3609 H       
 262 H262         -26.2206   -36.2040    -4.2008 H       
 263 H263         -35.0283   -33.9367    -3.5337 H       
 264 H264         -33.1081   -35.5716    -4.4662 H       
 265 H265         -34.4293   -36.1885    -1.8285 H       
 266 H266         -34.9026   -36.6915    -3.4844 H       
 267 H267         -33.2540   -38.4492    -3.5430 H       
 268 H268         -31.1273   -38.1147    -2.4570 H       
 269 H269         -31.8566   -37.1328    -1.1497 H       
 270 H270         -33.5124   -31.6853    -2.4561 H       
 271 H271         -35.9398   -32.8186    -0.9930 H       
 272 H272         -33.0053   -32.5988    -0.1822 H       
 273 H273         -34.3276   -33.1852     0.8550 H       
 274 H274         -33.8582   -34.1058    -0.5943 H       
 275 H275         -35.0331   -29.6317    -2.4550 H       
 276 H276         -33.4070   -39.5194    -1.4133 H       
 277 H277         -35.7444   -30.4380    -0.9289 H       
 278 H278         -37.2407   -29.9658    -4.3776 H       
 279 H279         -36.2766   -28.1211    -5.7936 H       
 280 H280         -34.7848   -28.2128    -4.8268 H       
 281 H281         -34.0437   -30.4629    -7.5868 H       
 282 H282         -38.1240   -27.4522    -4.7829 H       
 283 H283         -37.7472   -25.8286    -2.3851 H       
 284 H284         -40.2054   -25.8409    -1.8661 H       
 285 H285         -40.4152   -27.1479    -3.0561 H       
 286 H286         -38.8309   -28.5649    -1.7789 H       
 287 H287         -38.6212   -27.2578    -0.5890 H       
 288 H288         -41.0419   -27.3510    -0.0600 H       
 289 H289         -41.2517   -28.6580    -1.2499 H       
 290 H290         -39.6674   -30.0749     0.0273 H       
 291 H291         -39.4577   -28.7679     1.2172 H       
 292 H292         -42.0314   -30.0612     0.5914 H       
 293 H293         -41.1024   -30.3701     1.9358 H       
 294 H294         -39.5753   -23.8645    -2.6370 H       
 295 H295         -40.1422   -23.3398    -5.4532 H       
 296 H296         -38.8741   -21.1714    -5.4103 H       
 297 H297         -38.1735   -21.6515    -3.8461 H       
 298 H298         -38.2576   -22.3238    -7.4542 H       
 299 H299         -41.0556   -20.8044    -5.4702 H       
 300 H300         -36.5725   -23.4658    -3.7061 H       
 301 H301         -34.8486   -24.7769    -4.8757 H       
 302 H302         -36.5398   -23.6362    -8.6312 H       
 303 H303         -42.3219   -20.1484    -2.9219 H       
 304 H304         -34.8851   -25.9341    -7.6414 H       
 305 H305         -44.6224   -20.2227    -3.9288 H       
 306 H306         -43.9311   -21.0158    -5.3646 H       
 307 H307         -44.0055   -18.1347    -3.5328 H       
 308 H308         -42.2810   -16.2736    -4.9784 H       
 309 H309         -44.0048   -14.5892    -4.2689 H       
 310 H310         -44.9457   -15.9112    -3.5373 H       
 311 H311         -42.9501   -16.4837    -2.1224 H       
 312 H312         -41.1062   -14.8309    -1.9931 H       
 313 H313         -41.2243   -15.5298    -3.6258 H       
 314 H314         -41.8529   -13.8947    -3.3099 H       
 315 H315         -43.7823   -14.6057    -6.4706 H       
 316 H316         -44.7028   -15.4169    -7.6184 H       
 317 H317         -44.7511   -15.0141    -1.2592 H       
 318 H318         -43.1657   -14.5298    -0.6110 H       
 319 H319         -43.9125   -13.5936    -1.9279 H       
 320 H320         -43.0974   -22.8668    -3.9406 H       
 321 H321         -43.7887   -22.0737    -2.5049 H       
 322 H322         -46.0509   -22.2290    -3.5084 H       
 323 H323         -45.3596   -23.0221    -4.9441 H       
 324 H324         -44.5742   -24.4808    -2.6568 H       
 325 H325         -45.7720   -26.4714    -2.1340 H       
 326 H326         -47.3180   -26.7073    -2.7480 H       
 327 H327         -48.2561   -25.0740    -4.1020 H       
@<TRIPOS>BOND
   1    1    2 1
   2    1   59 1
   3    1  156 1
   4    1  157 1
   5    2    3 1
   6    2  158 1
   7    2  159 1
   8    3    4 1
   9    3  160 1
  10    3  161 1
  11    4    5 1
  12    4  162 1
  13    4  163 1
  14    5    6 1
  15    5  164 1
  16    5  165 1
  17    6    7 1
  18    6  166 1
  19    6  167 1
  20    7    8 1
  21    7  168 1
  22    7  169 1
  23    8    9 1
  24    8  170 1
  25    8  171 1
  26    9   10 1
  27    9  172 1
  28    9  173 1
  29   10   11 1
  30   10  174 1
  31   10  175 1
  32   11   12 1
  33   11  176 1
  34   11  177 1
  35   12   13 1
  36   12  178 1
  37   12  179 1
  38   13   14 1
  39   13  180 1
  40   13  181 1
  41   14   15 1
  42   14  182 1
  43   14  183 1
  44   15   16 am
  45   15   17 2
  46   16   18 1
  47   16   60 1
  48   18   19 1
  49   18  184 1
  50   18  185 1
  51   19   20 am
  52   19   21 2
  53   20   22 1
  54   20  186 1
  55   22   23 1
  56   22  187 1
  57   22  188 1
  58   23   24 am
  59   23   25 2
  60   24   26 1
  61   24  189 1
  62   26   27 1
  63   26   30 1
  64   26  190 1
  65   27   28 2
  66   27   29 am
  67   29   33 1
  68   29  191 1
  69   30   31 1
  70   30  192 1
  71   30  193 1
  72   31   32 ar
  73   31   54 ar
  74   32   51 ar
  75   32  194 1
  76   33   34 1
  77   33   35 1
  78   33  195 1
  79   34   38 1
  80   34  196 1
  81   34  197 1
  82   35   36 2
  83   35   37 am
  84   37   41 1
  85   37  198 1
  86   38   39 1
  87   38  199 1
  88   38  200 1
  89   39   40 am
  90   39   56 2
  91   40  201 1
  92   40  202 1
  93   41   42 1
  94   41   43 1
  95   41  203 1
  96   42   61 1
  97   42  204 1
  98   42  205 1
  99   43   44 2
 100   43   45 am
 101   45   46 1
 102   45  206 1
 103   46   47 1
 104   46   48 1
 105   46  207 1
 106   47   49 1
 107   47  208 1
 108   47  209 1
 109   48   65 am
 110   48   66 2
 111   49   50 1
 112   49  210 1
 113   49  211 1
 114   50   57 1
 115   50  212 1
 116   50  213 1
 117   51   52 ar
 118   51  214 1
 119   52   53 ar
 120   52   55 1
 121   53   54 ar
 122   53  215 1
 123   54  216 1
 124   55  217 1
 125   57   58 1
 126   57  218 1
 127   57  219 1
 128   58  220 1
 129   58  221 1
 130   59  222 1
 131   59  223 1
 132   59  224 1
 133   61   62 1
 134   61  225 1
 135   61  226 1
 136   62   63 1
 137   62  227 1
 138   62  228 1
 139   63   64 1
 140   63  229 1
 141   63  230 1
 142   64  231 1
 143   64  232 1
 144   65   67 1
 145   65  233 1
 146   67   68 1
 147   67   69 1
 148   67  234 1
 149   68   73 am
 150   68   74 2
 151   69   70 1
 152   69  235 1
 153   69  236 1
 154   70   71 1
 155   70   72 1
 156   70  237 1
 157   71  238 1
 158   71  239 1
 159   71  240 1
 160   72  241 1
 161   72  242 1
 162   72  243 1
 163   73   75 1
 164   73  244 1
 165   75   76 1
 166   75   77 1
 167   75  245 1
 168   76   78 am
 169   76   79 2
 170   77   80 1
 171   77  246 1
 172   77  247 1
 173   78   86 1
 174   78   89 1
 175   80   81 1
 176   80  248 1
 177   80  249 1
 178   81   82 1
 179   81  250 1
 180   81  251 1
 181   82   83 1
 182   82  252 1
 183   83   84 1
 184   83   85 2
 185   84  253 1
 186   84  254 1
 187   85  255 1
 188   86   87 1
 189   86   90 1
 190   86  256 1
 191   87   88 1
 192   87  257 1
 193   87  258 1
 194   88   89 1
 195   88  259 1
 196   88  260 1
 197   89  261 1
 198   89  262 1
 199   90   91 2
 200   90   95 am
 201   92   93 am
 202   92  100 1
 203   92  263 1
 204   93   99 2
 205   93   94 1
 206   94   95 1
 207   94   96 1
 208   94  264 1
 209   95   98 1
 210   96   97 1
 211   96  265 1
 212   96  266 1
 213   97   98 1
 214   97  106 1
 215   97  267 1
 216   98  268 1
 217   98  269 1
 218  100  101 1
 219  100  102 1
 220  100  270 1
 221  101  104 am
 222  101  105 2
 223  102  103 1
 224  102  107 1
 225  102  271 1
 226  103  272 1
 227  103  273 1
 228  103  274 1
 229  104  108 1
 230  104  275 1
 231  106  276 1
 232  107  277 1
 233  108  109 1
 234  108  110 1
 235  108  278 1
 236  109  115 2
 237  109  113 am
 238  110  111 1
 239  110  279 1
 240  110  280 1
 241  111  112 1
 242  111  114 2
 243  112  281 1
 244  113  116 1
 245  113  282 1
 246  116  117 1
 247  116  118 1
 248  116  283 1
 249  117  123 am
 250  117  124 2
 251  118  119 1
 252  118  284 1
 253  118  285 1
 254  119  120 1
 255  119  286 1
 256  119  287 1
 257  120  121 1
 258  120  288 1
 259  120  289 1
 260  121  122 1
 261  121  290 1
 262  121  291 1
 263  122  292 1
 264  122  293 1
 265  123  125 1
 266  123  294 1
 267  125  126 1
 268  125  127 1
 269  125  295 1
 270  126  131 2
 271  126  130 am
 272  127  128 1
 273  127  296 1
 274  127  297 1
 275  128  129 ar
 276  128  132 ar
 277  129  135 ar
 278  129  298 1
 279  130  136 1
 280  130  299 1
 281  132  133 ar
 282  132  300 1
 283  133  134 ar
 284  133  301 1
 285  134  135 ar
 286  134  137 1
 287  135  302 1
 288  136  138 1
 289  136  139 1
 290  136  303 1
 291  137  304 1
 292  138  140 am
 293  138  141 2
 294  139  150 1
 295  139  305 1
 296  139  306 1
 297  140  142 1
 298  140  307 1
 299  142  143 1
 300  142  144 1
 301  142  308 1
 302  143  149 2
 303  143  147 am
 304  144  145 1
 305  144  309 1
 306  144  310 1
 307  145  146 1
 308  145  148 1
 309  145  311 1
 310  146  312 1
 311  146  313 1
 312  146  314 1
 313  147  315 1
 314  147  316 1
 315  148  317 1
 316  148  318 1
 317  148  319 1
 318  150  151 1
 319  150  320 1
 320  150  321 1
 321  151  152 1
 322  151  322 1
 323  151  323 1
 324  152  153 1
 325  152  324 1
 326  153  154 1
 327  153  155 2
 328  154  325 1
 329  154  326 1
 330  155  327 1

#	End of record

