#	Name: ASD03230006
#	Creating user name:	WinNT
#	Creation time:	15. 06. 2019 20:34

#	Modifying user name:	WinNT
#	Modification time:	15. 06. 2019 20:34

#	Program:	/corina/corina34_cracker 3.40 0067  02.08.2006

@<TRIPOS>MOLECULE
ASD03230006
  19   19    0    0    0
SMALL
NO_CHARGES


@<TRIPOS>ATOM
   1 C1            -0.0167     1.3798     0.0096 C.ar    
   2 C2             0.0021    -0.0041     0.0020 C.ar    
   3 C3             1.2058    -0.6870    -0.0131 C.ar    
   4 C4             2.3968     0.0078    -0.0203 C.ar    
   5 C5             2.3862     1.4062    -0.0127 C.ar    
   6 C6             1.1658     2.0890     0.0021 C.ar    
   7 C7             3.6529     2.1555    -0.0202 C.2     
   8 C8             3.6387     3.5046    -0.0129 C.2     
   9 C9             4.8974     4.2491    -0.0204 C.2     
  10 O10            4.8832     5.5981    -0.0130 O.3     
  11 O11            5.9569     3.6522    -0.0333 O.2     
  12 H12           -0.9600     1.9056     0.0169 H       
  13 H13           -0.9275    -0.5539     0.0083 H       
  14 H14            1.2122    -1.7670    -0.0190 H       
  15 H15            3.3353    -0.5266    -0.0314 H       
  16 H16            1.1495     3.1689     0.0077 H       
  17 H17            4.5938     1.6255    -0.0317 H       
  18 H18            2.6978     4.0347    -0.0014 H       
  19 H19            5.7624     6.0007    -0.0189 H       
@<TRIPOS>BOND
   1    1    2 ar
   2    1    6 ar
   3    1   12 1
   4    2    3 ar
   5    2   13 1
   6    3    4 ar
   7    3   14 1
   8    4    5 ar
   9    4   15 1
  10    5    6 ar
  11    5    7 1
  12    6   16 1
  13    7    8 2
  14    7   17 1
  15    8    9 1
  16    8   18 1
  17    9   10 1
  18    9   11 2
  19   10   19 1

#	End of record

