#	Name: ASD01209031
#	Creating user name:	WinNT
#	Creation time:	15. 06. 2019 19:10

#	Modifying user name:	WinNT
#	Modification time:	15. 06. 2019 19:10

#	Program:	/corina/corina34_cracker 3.40 0067  02.08.2006

@<TRIPOS>MOLECULE
ASD01209031
  58   62    0    0    0
SMALL
NO_CHARGES


@<TRIPOS>ATOM
   1 S1            -0.9187    -0.3936     0.8474 S.o2    
   2 C2            -3.6719    -0.9455    -5.5434 C.3     
   3 C3            -5.0387    -0.5231    -5.0009 C.3     
   4 C4            -4.8691     0.6822    -4.0738 C.3     
   5 C5            -6.2253     1.1927    -3.6604 C.2     
   6 O6            -6.5797     1.1047    -2.5039 O.2     
   7 N7            -4.1148     0.2806    -2.8838 N.pl3   
   8 C8            -2.9132     0.8039    -2.4763 C.ar    
   9 C9            -2.5604     0.1266    -1.2921 C.ar    
  10 C10           -3.5938    -0.8032    -1.0282 C.2     
  11 N11           -4.4968    -0.6998    -1.9601 N.2     
  12 N12           -7.0445     1.7471    -4.5758 N.am    
  13 C13           -2.0741     1.7878    -2.9840 C.ar    
  14 C14           -0.8922     2.0942    -2.3174 C.ar    
  15 C15           -0.5488     1.4147    -1.1382 C.ar    
  16 C16           -1.3646     0.4504    -0.6336 C.ar    
  17 C17           -8.2458     2.3294    -4.1744 C.ar    
  18 C18           -2.1952     0.0862     2.0436 C.3     
  19 C19           -2.0282    -0.3951     3.4863 C.3     
  20 C20           -1.7993     1.0774     3.1398 C.3     
  21 O21           -1.0382    -1.7702     0.5159 O.2     
  22 O22            0.3367     0.1673     1.2060 O.2     
  23 C23           -3.8172    -2.2434    -6.3439 C.3     
  24 C24           -2.4607    -2.6158    -6.9481 C.3     
  25 O25           -1.9948    -1.5417    -7.7675 O.3     
  26 C26           -1.7951    -0.3146    -7.0630 C.3     
  27 C27           -3.1248     0.1502    -6.4634 C.3     
  28 C28           -8.4510     2.6540    -2.8366 C.ar    
  29 N29           -9.5896     3.2056    -2.4605 N.ar    
  30 C30          -10.5342     3.4498    -3.3528 C.ar    
  31 C31          -10.3337     3.1282    -4.6824 C.ar    
  32 N32           -9.1939     2.5806    -5.0673 N.ar    
  33 C33           -0.0229     3.1071    -2.8360 C.1     
  34 N34            0.6668     3.9106    -3.2474 N.1     
  35 H35           -2.9833    -1.1041    -4.7135 H       
  36 H36           -5.6917    -0.2539    -5.8310 H       
  37 H37           -5.4802    -1.3500    -4.4446 H       
  38 H38           -4.3284     1.4703    -4.5978 H       
  39 H39           -3.6295    -1.4831    -0.1899 H       
  40 H40           -6.7981     1.7410    -5.5140 H       
  41 H41           -2.3373     2.3112    -3.8912 H       
  42 H42            0.3707     1.6596    -0.6274 H       
  43 H43           -3.2092     0.1506     1.6487 H       
  44 H44           -2.9322    -0.6471     4.0406 H       
  45 H45           -1.1512    -1.0001     3.7166 H       
  46 H46           -0.7718     1.4412     3.1422 H       
  47 H47           -2.5528     1.7942     3.4663 H       
  48 H48           -4.1536    -3.0428    -5.6837 H       
  49 H49           -4.5445    -2.0992    -7.1428 H       
  50 H50           -1.7442    -2.7994    -6.1474 H       
  51 H51           -2.5673    -3.5155    -7.5541 H       
  52 H52           -1.0699    -0.4681    -6.2638 H       
  53 H53           -1.4222     0.4435    -7.7517 H       
  54 H54           -3.8382     0.3428    -7.2647 H       
  55 H55           -2.9661     1.0627    -5.8886 H       
  56 H56           -7.6799     2.4544    -2.1073 H       
  57 H57          -11.4648     3.9012    -3.0422 H       
  58 H58          -11.1079     3.3285    -5.4083 H       
@<TRIPOS>BOND
   1    1   21 2
   2    1   22 2
   3    1   16 1
   4    1   18 1
   5    2    3 1
   6    2   23 1
   7    2   27 1
   8    2   35 1
   9    3    4 1
  10    3   36 1
  11    3   37 1
  12    4    7 1
  13    4    5 1
  14    4   38 1
  15    5    6 2
  16    5   12 am
  17    7    8 1
  18    7   11 1
  19    8    9 ar
  20    8   13 ar
  21    9   10 1
  22    9   16 ar
  23   10   11 2
  24   10   39 1
  25   12   17 1
  26   12   40 1
  27   13   14 ar
  28   13   41 1
  29   14   15 ar
  30   14   33 1
  31   15   16 ar
  32   15   42 1
  33   17   28 ar
  34   17   32 ar
  35   18   19 1
  36   18   20 1
  37   18   43 1
  38   19   20 1
  39   19   44 1
  40   19   45 1
  41   20   46 1
  42   20   47 1
  43   23   24 1
  44   23   48 1
  45   23   49 1
  46   24   25 1
  47   24   50 1
  48   24   51 1
  49   25   26 1
  50   26   27 1
  51   26   52 1
  52   26   53 1
  53   27   54 1
  54   27   55 1
  55   28   29 ar
  56   28   56 1
  57   29   30 ar
  58   30   31 ar
  59   30   57 1
  60   31   32 ar
  61   31   58 1
  62   33   34 3

#	End of record

