#	Name: ASD01200515
#	Creating user name:	WinNT
#	Creation time:	15. 06. 2019 19:09

#	Modifying user name:	WinNT
#	Modification time:	15. 06. 2019 19:09

#	Program:	/corina/corina34_cracker 3.40 0067  02.08.2006

@<TRIPOS>MOLECULE
ASD01200515
  25   26    0    0    0
SMALL
NO_CHARGES


@<TRIPOS>ATOM
   1 N1            -0.2609     1.2215    -0.5251 N.ar    
   2 C2            -0.1418    -0.0729    -0.3076 C.ar    
   3 C3             1.1076    -0.6800    -0.3122 C.ar    
   4 C4             2.2366     0.0997    -0.5503 C.ar    
   5 C5             2.0644     1.4561    -0.7740 C.ar    
   6 C6             0.7884     1.9871    -0.7537 C.ar    
   7 N7             1.2299    -2.0538    -0.0805 N.am    
   8 C8             0.1557    -2.7703     0.3057 C.2     
   9 C9             2.5257    -2.7140    -0.2575 C.3     
  10 O10           -0.8937    -2.2068     0.5563 O.2     
  11 O11            1.3805    -4.9593     0.3207 O.3     
  12 C12            0.2511    -4.2276     0.4239 C.2     
  13 C13           -0.7876    -5.0836     0.6583 C.2     
  14 C14           -0.2449    -6.3766     0.6946 C.2     
  15 C15            1.0862    -6.2560     0.4833 C.2     
  16 Br16           2.3262    -7.6825     0.4268 Br      
  17 H17           -1.0245    -0.6675    -0.1237 H       
  18 H18            3.2221    -0.3420    -0.5601 H       
  19 H19            2.9175     2.0913    -0.9618 H       
  20 H20            0.6486     3.0439    -0.9275 H       
  21 H21            3.0305    -2.7877     0.7057 H       
  22 H22            2.3716    -3.7134    -0.6644 H       
  23 H23            3.1389    -2.1321    -0.9456 H       
  24 H24           -1.8257    -4.8164     0.7901 H       
  25 H25           -0.7874    -7.2956     0.8607 H       
@<TRIPOS>BOND
   1    1    2 ar
   2    1    6 ar
   3    2    3 ar
   4    2   17 1
   5    3    4 ar
   6    3    7 1
   7    4    5 ar
   8    4   18 1
   9    5    6 ar
  10    5   19 1
  11    6   20 1
  12    7    8 am
  13    7    9 1
  14    8   10 2
  15    8   12 1
  16    9   21 1
  17    9   22 1
  18    9   23 1
  19   11   12 1
  20   11   15 1
  21   12   13 2
  22   13   14 1
  23   13   24 1
  24   14   15 2
  25   14   25 1
  26   15   16 1

#	End of record

