#	Name: ASD01810323
#	Creating user name:	WinNT
#	Creation time:	15. 06. 2019 19:24

#	Modifying user name:	WinNT
#	Modification time:	15. 06. 2019 19:24

#	Program:	/corina/corina34_cracker 3.40 0067  02.08.2006

@<TRIPOS>MOLECULE
ASD01810323
  44   47    0    0    0
SMALL
NO_CHARGES


@<TRIPOS>ATOM
   1 C1             1.1191     0.5982     0.8979 C.ar    
   2 C2             1.0965    -0.7782     0.7254 C.ar    
   3 C3             2.2619    -1.4776     0.4890 C.ar    
   4 C4             3.4787    -0.7997     0.4216 C.ar    
   5 C5             3.4968     0.5940     0.5968 C.ar    
   6 C6             2.3101     1.2873     0.8352 C.ar    
   7 N7             4.6510    -1.4864     0.1870 N.pl3   
   8 C8             5.8436    -0.8823     0.1147 C.2     
   9 C9             5.9879     0.4817     0.2708 C.2     
  10 C10            4.7902     1.2990     0.5232 C.2     
  11 O11            4.8644     2.5067     0.6677 O.2     
  12 C12            4.5891    -2.9393     0.0098 C.3     
  13 C13            4.2279    -3.2562    -1.4186 C.ar    
  14 C14            5.0634    -2.8526    -2.4474 C.ar    
  15 C15            4.7366    -3.1413    -3.7591 C.ar    
  16 C16            3.5639    -3.8398    -4.0443 C.ar    
  17 C17            2.7274    -4.2429    -3.0028 C.ar    
  18 C18            3.0664    -3.9538    -1.6970 C.ar    
  19 C19            3.2075    -4.1518    -5.4462 C.2     
  20 C20            7.3151     1.1074     0.1854 C.2     
  21 O21            7.4430     2.4404     0.3396 O.3     
  22 O22            8.2974     0.4227    -0.0243 O.2     
  23 F23            2.2244    -2.8179     0.3234 F       
  24 F24            6.1988    -2.1756    -2.1684 F       
  25 N25            3.6525    -3.4994    -6.5571 N.pl3   
  26 N26            3.0724    -4.1144    -7.6739 N.2     
  27 C27            2.3106    -5.0948    -7.2594 C.2     
  28 C28            2.3762    -5.1510    -5.8671 C.2     
  29 C29            4.5719    -2.3590    -6.5790 C.3     
  30 H30            0.1979     1.1325     1.0777 H       
  31 H31            0.1567    -1.3078     0.7770 H       
  32 H32            2.3250     2.3588     0.9694 H       
  33 H33            6.7221    -1.4822    -0.0716 H       
  34 H34            5.5600    -3.3757     0.2444 H       
  35 H35            3.8334    -3.3548     0.6764 H       
  36 H36            5.3878    -2.8264    -4.5612 H       
  37 H37            1.8180    -4.7841    -3.2183 H       
  38 H38            2.4192    -4.2661    -0.8908 H       
  39 H39            8.3358     2.8062     0.2751 H       
  40 H40            1.7312    -5.7527    -7.8901 H       
  41 H41            1.8566    -5.8550    -5.2339 H       
  42 H42            5.5994    -2.7197    -6.5321 H       
  43 H43            4.4271    -1.7933    -7.4994 H       
  44 H44            4.3732    -1.7156    -5.7219 H       
@<TRIPOS>BOND
   1    1    2 ar
   2    1    6 ar
   3    1   30 1
   4    2    3 ar
   5    2   31 1
   6    3    4 ar
   7    3   23 1
   8    4    5 ar
   9    4    7 1
  10    5    6 ar
  11    5   10 1
  12    6   32 1
  13    7    8 1
  14    7   12 1
  15    8    9 2
  16    8   33 1
  17    9   10 1
  18    9   20 1
  19   10   11 2
  20   12   13 1
  21   12   34 1
  22   12   35 1
  23   13   14 ar
  24   13   18 ar
  25   14   15 ar
  26   14   24 1
  27   15   16 ar
  28   15   36 1
  29   16   17 ar
  30   16   19 1
  31   17   18 ar
  32   17   37 1
  33   18   38 1
  34   19   25 1
  35   19   28 2
  36   20   21 1
  37   20   22 2
  38   21   39 1
  39   25   26 1
  40   25   29 1
  41   26   27 2
  42   27   28 1
  43   27   40 1
  44   28   41 1
  45   29   42 1
  46   29   43 1
  47   29   44 1

#	End of record

