#	Name: ASD02560208
#	Creating user name:	WinNT
#	Creation time:	15. 06. 2019 20:24

#	Modifying user name:	WinNT
#	Modification time:	15. 06. 2019 20:24

#	Program:	/corina/corina34_cracker 3.40 0067  02.08.2006

@<TRIPOS>MOLECULE
ASD02560208
  68   71    0    0    0
SMALL
NO_CHARGES


@<TRIPOS>ATOM
   1 Br1            1.6334     1.4361    -2.3751 Br      
   2 N2             0.0370     0.7750    -0.1284 N.2     
   3 N3            -0.4120    -0.3753    -0.1505 N.2     
   4 C4             1.4512     0.8010    -0.5234 C.3     
   5 N5             1.9007    -0.6099    -0.4141 N.3     
   6 C6             0.6160    -1.3389    -0.5645 C.3     
   7 S7             0.5868    -2.7966     0.5149 S.3     
   8 C8             0.7806    -2.0820     2.1709 C.3     
   9 C9             0.7757    -3.1850     3.1977 C.2     
  10 O10            0.6535    -4.3395     2.8469 O.2     
  11 N11            0.9071    -2.8885     4.5059 N.am    
  12 C12            2.7823    -0.9342    -1.4430 C.ar    
  13 C13            0.8191    -3.8998     5.4625 C.ar    
  14 C14            0.3408    -3.6102     6.7378 C.ar    
  15 C15            0.2528    -4.6070     7.6844 C.ar    
  16 C16            0.6443    -5.9098     7.3632 C.ar    
  17 C17            1.1237    -6.1963     6.0825 C.ar    
  18 C18            1.2038    -5.1965     5.1388 C.ar    
  19 Cl19          -0.1445    -1.9915     7.1352 Cl      
  20 C20            0.5520    -6.9804     8.3749 C.2     
  21 C21            3.9820    -0.2092    -1.6078 C.ar    
  22 C22            2.4933    -1.9699    -2.3061 C.ar    
  23 C23            3.3671    -2.3017    -3.3369 C.ar    
  24 C24            4.5288    -1.6158    -3.5220 C.ar    
  25 C25            4.8633    -0.5567    -2.6613 C.ar    
  26 C26            4.3178     0.8487    -0.7488 C.ar    
  27 C27            6.0555     0.1691    -2.8289 C.ar    
  28 C28            6.3482     1.1895    -1.9772 C.ar    
  29 C29            5.4834     1.5266    -0.9378 C.ar    
  30 C30            5.4579    -1.9960    -4.6460 C.3     
  31 N31            0.9299    -8.2361     8.0637 N.am    
  32 O32            0.1351    -6.7296     9.4892 O.2     
  33 C33            0.8383    -9.2988     9.0679 C.3     
  34 C34            1.3255   -10.6165     8.4620 C.3     
  35 O35            0.5116   -10.9531     7.3367 O.3     
  36 C36            0.6425   -12.3106     6.9099 C.3     
  37 C37            6.5318    -2.9500    -4.1194 C.3     
  38 O38            2.6839   -10.4741     8.0417 O.3     
  39 C39            3.3940   -11.7101     7.9418 C.3     
  40 H40            2.0230     1.4351     0.1542 H       
  41 H41            0.4652    -1.6319    -1.6035 H       
  42 H42            1.7247    -1.5399     2.2245 H       
  43 H43           -0.0436    -1.3968     2.3697 H       
  44 H44            1.0628    -1.9718     4.7821 H       
  45 H45           -0.1178    -4.3822     8.6736 H       
  46 H46            1.4269    -7.2020     5.8314 H       
  47 H47            1.5740    -5.4179     4.1487 H       
  48 H48            1.5786    -2.5302    -2.1804 H       
  49 H49            3.1201    -3.1169    -4.0008 H       
  50 H50            3.6546     1.1240     0.0580 H       
  51 H51            6.7357    -0.0819    -3.6294 H       
  52 H52            7.2648     1.7455    -2.1082 H       
  53 H53            5.7388     2.3409    -0.2760 H       
  54 H54            4.8904    -2.4881    -5.4358 H       
  55 H55            5.9324    -1.0991    -5.0443 H       
  56 H56            1.2626    -8.4362     7.1748 H       
  57 H57            1.4591    -9.0421     9.9263 H       
  58 H58           -0.1978    -9.4075     9.3885 H       
  59 H59            1.2573   -11.4072     9.2091 H       
  60 H60            1.5946   -12.4394     6.3952 H       
  61 H61            0.6064   -12.9693     7.7775 H       
  62 H62           -0.1738   -12.5584     6.2314 H       
  63 H63            7.2039    -3.2250    -4.9323 H       
  64 H64            7.0994    -2.4579    -3.3295 H       
  65 H65            6.0574    -3.8469    -3.7210 H       
  66 H66            4.4524   -11.5088     7.7768 H       
  67 H67            3.2713   -12.2754     8.8657 H       
  68 H68            2.9998   -12.2891     7.1066 H       
@<TRIPOS>BOND
   1    1    4 1
   2    2    3 2
   3    2    4 1
   4    3    6 1
   5    4    5 1
   6    4   40 1
   7    5    6 1
   8    5   12 1
   9    6    7 1
  10    6   41 1
  11    7    8 1
  12    8    9 1
  13    8   42 1
  14    8   43 1
  15    9   10 2
  16    9   11 am
  17   11   13 1
  18   11   44 1
  19   12   21 ar
  20   12   22 ar
  21   13   14 ar
  22   13   18 ar
  23   14   15 ar
  24   14   19 1
  25   15   16 ar
  26   15   45 1
  27   16   17 ar
  28   16   20 1
  29   17   18 ar
  30   17   46 1
  31   18   47 1
  32   20   31 am
  33   20   32 2
  34   21   25 ar
  35   21   26 ar
  36   22   23 ar
  37   22   48 1
  38   23   24 ar
  39   23   49 1
  40   24   25 ar
  41   24   30 1
  42   25   27 ar
  43   26   29 ar
  44   26   50 1
  45   27   28 ar
  46   27   51 1
  47   28   29 ar
  48   28   52 1
  49   29   53 1
  50   30   37 1
  51   30   54 1
  52   30   55 1
  53   31   33 1
  54   31   56 1
  55   33   34 1
  56   33   57 1
  57   33   58 1
  58   34   35 1
  59   34   38 1
  60   34   59 1
  61   35   36 1
  62   36   60 1
  63   36   61 1
  64   36   62 1
  65   37   63 1
  66   37   64 1
  67   37   65 1
  68   38   39 1
  69   39   66 1
  70   39   67 1
  71   39   68 1

#	End of record

