#	Name: ASD06660079
#	Creating user name:	WinNT
#	Creation time:	15. 06. 2019 21:07

#	Modifying user name:	WinNT
#	Modification time:	15. 06. 2019 21:07

#	Program:	/corina/corina34_cracker 3.40 0067  02.08.2006

@<TRIPOS>MOLECULE
ASD06660079
  77   81    0    0    0
SMALL
NO_CHARGES


@<TRIPOS>ATOM
   1 C1            -1.4580     1.6370     0.2970 C.2     
   2 C2            -1.2026     0.3258    -0.4006 C.3     
   3 C3            -1.9517     0.3035    -1.7345 C.3     
   4 O4            -0.5347     2.3696     0.5630 O.2     
   5 O5            -2.7116     1.9935     0.6179 O.3     
   6 C6            -1.8104    -1.0569    -2.3673 C.ar    
   7 C7            -2.6849    -2.0716    -2.0239 C.ar    
   8 C8            -2.5582    -3.3195    -2.6019 C.ar    
   9 C9            -1.5509    -3.5547    -3.5291 C.ar    
  10 C10           -0.6742    -2.5331    -3.8718 C.ar    
  11 C11           -0.8101    -1.2860    -3.2941 C.ar    
  12 N12           -1.4196    -4.8157    -4.1153 N.3     
  13 C13           -2.7397    -5.4276    -4.3537 C.3     
  14 C14           -2.8271    -5.7541    -5.8594 C.3     
  15 C15           -1.3379    -5.8308    -6.2874 C.3     
  16 C16           -0.7014    -4.7284    -5.4046 C.3     
  17 C17           -3.5239    -7.0979    -6.0820 C.3     
  18 N18           -3.6990    -7.3251    -7.5186 N.pl3   
  19 C19           -4.3127    -8.4883    -7.9685 C.ar    
  20 C20           -4.7583    -9.4328    -7.0491 C.ar    
  21 C21           -5.3672   -10.5856    -7.5107 C.ar    
  22 C22           -5.5106   -10.7562    -8.8815 C.ar    
  23 C23           -5.0452    -9.7781    -9.7369 C.ar    
  24 N24           -4.4729    -8.6852    -9.2680 N.ar    
  25 C25            1.0571    -0.1657     0.3669 C.2     
  26 C26            2.4872    -0.4201     0.1013 C.ar    
  27 C27            2.9451    -1.7287    -0.0729 C.ar    
  28 C28            4.2793    -1.9622    -0.3209 C.ar    
  29 C29            5.1706    -0.8976    -0.3981 C.ar    
  30 C30            4.7187     0.4056    -0.2249 C.ar    
  31 C31            3.3845     0.6472     0.0178 C.ar    
  32 O32            0.6223    -0.2627     1.4981 O.2     
  33 N33            0.2339     0.1742    -0.6447 N.am    
  34 C34            2.8944     2.0607     0.1988 C.3     
  35 C35            7.1085    -2.3515    -0.8396 C.2     
  36 N36            8.3841    -2.1708    -1.0468 N.2     
  37 C37            8.6612    -0.8591    -0.9989 C.2     
  38 C38            7.5159    -0.1958    -0.7525 C.2     
  39 N39            6.5251    -1.1386    -0.6502 N.pl3   
  40 C40            1.9800    -2.8832     0.0111 C.3     
  41 C41            1.3099    -3.0877    -1.3490 C.3     
  42 H42           -1.5531    -0.4938     0.2267 H       
  43 H43           -3.0068     0.5163    -1.5623 H       
  44 H44           -1.5326     1.0588    -2.3993 H       
  45 H45           -2.8256     2.8436     1.0645 H       
  46 H46           -3.4676    -1.8882    -1.3027 H       
  47 H47           -3.2412    -4.1117    -2.3331 H       
  48 H48            0.1100    -2.7126    -4.5923 H       
  49 H49           -0.1318    -0.4899    -3.5636 H       
  50 H50           -2.8351    -6.3429    -3.7696 H       
  51 H51           -3.5282    -4.7266    -4.0799 H       
  52 H52           -3.3421    -4.9580    -6.3971 H       
  53 H53           -0.9151    -6.8086    -6.0563 H       
  54 H54           -1.2233    -5.5979    -7.3460 H       
  55 H55           -0.8502    -3.7476    -5.8563 H       
  56 H56            0.3613    -4.9237    -5.2610 H       
  57 H57           -2.9152    -7.8972    -5.6593 H       
  58 H58           -4.4987    -7.0869    -5.5944 H       
  59 H59           -3.3868    -6.6638    -8.1559 H       
  60 H60           -4.6302    -9.2681    -5.9895 H       
  61 H61           -5.7227   -11.3365    -6.8206 H       
  62 H62           -5.9813   -11.6453    -9.2742 H       
  63 H63           -5.1547    -9.9067   -10.8036 H       
  64 H64            4.6340    -2.9735    -0.4552 H       
  65 H65            5.4138     1.2300    -0.2849 H       
  66 H66            0.5926     0.3183    -1.5343 H       
  67 H67            2.9518     2.3330     1.2526 H       
  68 H68            3.5163     2.7385    -0.3860 H       
  69 H69            1.8607     2.1330    -0.1394 H       
  70 H70            6.6007    -3.3045    -0.8256 H       
  71 H71            9.6351    -0.4123    -1.1342 H       
  72 H72            7.3997     0.8735    -0.6543 H       
  73 H73            2.5196    -3.7882     0.2901 H       
  74 H74            1.2198    -2.6674     0.7619 H       
  75 H75            0.8529    -2.1527    -1.6732 H       
  76 H76            2.0571    -3.3992    -2.0790 H       
  77 H77            0.5424    -3.8569    -1.2639 H       
@<TRIPOS>BOND
   1    1    2 1
   2    1    4 2
   3    1    5 1
   4    2    3 1
   5    2   33 1
   6    2   42 1
   7    3    6 1
   8    3   43 1
   9    3   44 1
  10    5   45 1
  11    6    7 ar
  12    6   11 ar
  13    7    8 ar
  14    7   46 1
  15    8    9 ar
  16    8   47 1
  17    9   10 ar
  18    9   12 1
  19   10   11 ar
  20   10   48 1
  21   11   49 1
  22   12   13 1
  23   12   16 1
  24   13   14 1
  25   13   50 1
  26   13   51 1
  27   14   15 1
  28   14   17 1
  29   14   52 1
  30   15   16 1
  31   15   53 1
  32   15   54 1
  33   16   55 1
  34   16   56 1
  35   17   18 1
  36   17   57 1
  37   17   58 1
  38   18   19 1
  39   18   59 1
  40   19   20 ar
  41   19   24 ar
  42   20   21 ar
  43   20   60 1
  44   21   22 ar
  45   21   61 1
  46   22   23 ar
  47   22   62 1
  48   23   24 ar
  49   23   63 1
  50   25   26 1
  51   25   32 2
  52   25   33 am
  53   26   27 ar
  54   26   31 ar
  55   27   28 ar
  56   27   40 1
  57   28   29 ar
  58   28   64 1
  59   29   30 ar
  60   29   39 1
  61   30   31 ar
  62   30   65 1
  63   31   34 1
  64   33   66 1
  65   34   67 1
  66   34   68 1
  67   34   69 1
  68   35   36 2
  69   35   39 1
  70   35   70 1
  71   36   37 1
  72   37   38 2
  73   37   71 1
  74   38   39 1
  75   38   72 1
  76   40   41 1
  77   40   73 1
  78   40   74 1
  79   41   75 1
  80   41   76 1
  81   41   77 1

#	End of record

