#	Name: ASD03731608
#	Creating user name:	WinNT
#	Creation time:	15. 06. 2019 20:46

#	Modifying user name:	WinNT
#	Modification time:	15. 06. 2019 20:46

#	Program:	/corina/corina34_cracker 3.40 0067  02.08.2006

@<TRIPOS>MOLECULE
ASD03731608
  37   38    0    0    0
SMALL
NO_CHARGES


@<TRIPOS>ATOM
   1 C1            -0.1362     1.4671     0.0333 C.2     
   2 C2            -0.0851    -0.0063     0.0191 C.ar    
   3 C3             1.1401    -0.6648    -0.1384 C.ar    
   4 C4             1.1828    -2.0445    -0.1506 C.ar    
   5 C5             0.0129    -2.7784    -0.0073 C.ar    
   6 C6            -1.2081    -2.1270     0.1493 C.ar    
   7 C7            -1.2596    -0.7502     0.1688 C.ar    
   8 O8             0.8870     2.1122    -0.0920 O.2     
   9 N9            -1.3176     2.0991     0.1795 N.am    
  10 S10           -1.3750     3.7540     0.1954 S.o2    
  11 O11           -2.7502     4.0551     0.3893 O.2     
  12 O12           -0.4001     4.1292     1.1587 O.2     
  13 C13           -0.8452     4.2413    -1.4696 C.3     
  14 O14            0.0593    -4.1348    -0.0202 O.3     
  15 C15           -0.1522    -4.7697    -1.2043 C.ar    
  16 C16           -0.0459    -6.1556    -1.2809 C.ar    
  17 C17           -0.2619    -6.7985    -2.4887 C.ar    
  18 C18           -0.5829    -6.0622    -3.6167 C.ar    
  19 C19           -0.6879    -4.6842    -3.5396 C.ar    
  20 C20           -0.4792    -4.0386    -2.3347 C.ar    
  21 O21            0.2699    -6.8769    -0.1723 O.3     
  22 C22            0.3617    -8.2948    -0.3252 C.3     
  23 F23           -0.7935    -6.6898    -4.7944 F       
  24 F24           -2.3432    -2.8464     0.2878 F       
  25 F25            2.2787     0.0487    -0.2788 F       
  26 H26            2.1274    -2.5537    -0.2720 H       
  27 H27           -2.2065    -0.2463     0.2951 H       
  28 H28           -2.1343     1.5845     0.2755 H       
  29 H29           -1.5275     3.8176    -2.2066 H       
  30 H30           -0.8532     5.3283    -1.5499 H       
  31 H31            0.1634     3.8709    -1.6529 H       
  32 H32           -0.1797    -7.8736    -2.5508 H       
  33 H33           -0.9381    -4.1125    -4.4211 H       
  34 H34           -0.5664    -2.9638    -2.2759 H       
  35 H35            0.6193    -8.7475     0.6323 H       
  36 H36           -0.5967    -8.6863    -0.6662 H       
  37 H37            1.1327    -8.5320    -1.0583 H       
@<TRIPOS>BOND
   1    1    2 1
   2    1    8 2
   3    1    9 am
   4    2    3 ar
   5    2    7 ar
   6    3    4 ar
   7    3   25 1
   8    4    5 ar
   9    4   26 1
  10    5    6 ar
  11    5   14 1
  12    6    7 ar
  13    6   24 1
  14    7   27 1
  15    9   10 am
  16    9   28 1
  17   10   11 2
  18   10   12 2
  19   10   13 1
  20   13   29 1
  21   13   30 1
  22   13   31 1
  23   14   15 1
  24   15   16 ar
  25   15   20 ar
  26   16   17 ar
  27   16   21 1
  28   17   18 ar
  29   17   32 1
  30   18   19 ar
  31   18   23 1
  32   19   20 ar
  33   19   33 1
  34   20   34 1
  35   21   22 1
  36   22   35 1
  37   22   36 1
  38   22   37 1

#	End of record

