#	Name: ASD03730920
#	Creating user name:	WinNT
#	Creation time:	15. 06. 2019 20:44

#	Modifying user name:	WinNT
#	Modification time:	15. 06. 2019 20:44

#	Program:	/corina/corina34_cracker 3.40 0067  02.08.2006

@<TRIPOS>MOLECULE
ASD03730920
  62   68    0    0    0
SMALL
NO_CHARGES


@<TRIPOS>ATOM
   1 C1            -0.0191     1.4720     0.0332 C.2     
   2 C2            -0.0014    -0.0060     0.0376 C.ar    
   3 C3             1.2142    -0.6926     0.0461 C.ar    
   4 C4             1.2236    -2.0719     0.0507 C.ar    
   5 C5             0.0317    -2.7750     0.0463 C.ar    
   6 C6            -1.1763    -2.1009     0.0373 C.ar    
   7 C7            -1.1999    -0.7213     0.0390 C.ar    
   8 O8             1.0263     2.0924     0.0371 O.2     
   9 N9            -1.1942     2.1319     0.0193 N.am    
  10 C10            2.5347    -2.8148     0.0599 C.3     
  11 O11           -0.9975    -3.2708     6.3054 O.3     
  12 C12           -1.0599    -3.5135     7.7233 C.3     
  13 O13           -0.1592    -4.6192     7.9212 O.3     
  14 C14            0.7538    -4.5330     6.9094 C.ar    
  15 C15            0.2373    -3.7045     5.9157 C.ar    
  16 C16            2.0046    -5.1029     6.7537 C.ar    
  17 C17            2.7541    -4.8563     5.6074 C.ar    
  18 C18            2.2241    -4.0337     4.6180 C.ar    
  19 C19            0.9798    -3.4590     4.7729 C.ar    
  20 O20            3.9987    -5.2986     5.2676 O.3     
  21 C21            3.2422    -3.9842     3.5104 C.3     
  22 C22            4.1854    -5.1472     3.8471 C.3     
  23 N23            2.9524    -3.0510     1.4441 N.am    
  24 C24            2.6160    -4.1456     2.1552 C.2     
  25 C25            3.9675    -2.6722     3.4597 C.ar    
  26 C26            4.7270    -1.9693     4.3681 C.ar    
  27 C27            5.2799    -0.7515     4.0139 C.ar    
  28 C28            5.0673    -0.2418     2.7459 C.ar    
  29 C29            4.3064    -0.9417     1.8328 C.ar    
  30 C30            3.7463    -2.1685     2.1805 C.ar    
  31 O31            1.9403    -5.0783     1.7749 O.2     
  32 C32           -1.2149     3.5255     0.1325 C.ar    
  33 C33           -2.1864     4.2630    -0.5315 C.ar    
  34 C34           -2.2038     5.6412    -0.4173 C.ar    
  35 C35           -1.2530     6.2846     0.3582 C.ar    
  36 C36           -0.2854     5.5515     1.0192 C.ar    
  37 C37           -0.2674     4.1742     0.9139 C.ar    
  38 C38           -3.2197     3.5626    -1.3757 C.3     
  39 F39           -3.1481     6.3604    -1.0626 F       
  40 H40            2.1450    -0.1450     0.0489 H       
  41 H41            0.0446    -3.8550     0.0495 H       
  42 H42           -2.1029    -2.6556     0.0332 H       
  43 H43           -2.1436    -0.1961     0.0366 H       
  44 H44           -2.0256     1.6400    -0.0692 H       
  45 H45            2.4148    -3.7699    -0.4514 H       
  46 H46            3.2922    -2.2212    -0.4519 H       
  47 H47           -0.7194    -2.6384     8.2769 H       
  48 H48           -2.0723    -3.7862     8.0210 H       
  49 H49            2.4022    -5.7435     7.5270 H       
  50 H50            0.5835    -2.8162     4.0009 H       
  51 H51            5.2187    -4.8863     3.6181 H       
  52 H52            3.8874    -6.0527     3.3188 H       
  53 H53            4.8916    -2.3691     5.3578 H       
  54 H54            5.8764    -0.2003     4.7258 H       
  55 H55            5.4987     0.7089     2.4695 H       
  56 H56            4.1444    -0.5369     0.8447 H       
  57 H57           -1.2677     7.3609     0.4462 H       
  58 H58            0.4547     6.0558     1.6227 H       
  59 H59            0.4863     3.6024     1.4348 H       
  60 H60           -4.0859     3.3178    -0.7610 H       
  61 H61           -3.5265     4.2170    -2.1916 H       
  62 H62           -2.7941     2.6465    -1.7852 H       
@<TRIPOS>BOND
   1    1    2 1
   2    1    8 2
   3    1    9 am
   4    2    3 ar
   5    2    7 ar
   6    3    4 ar
   7    3   40 1
   8    4    5 ar
   9    4   10 1
  10    5    6 ar
  11    5   41 1
  12    6    7 ar
  13    6   42 1
  14    7   43 1
  15    9   32 1
  16    9   44 1
  17   10   23 1
  18   10   45 1
  19   10   46 1
  20   11   12 1
  21   11   15 1
  22   12   13 1
  23   12   47 1
  24   12   48 1
  25   13   14 1
  26   14   15 ar
  27   14   16 ar
  28   15   19 ar
  29   16   17 ar
  30   16   49 1
  31   17   18 ar
  32   17   20 1
  33   18   19 ar
  34   18   21 1
  35   19   50 1
  36   20   22 1
  37   21   22 1
  38   21   24 1
  39   21   25 1
  40   22   51 1
  41   22   52 1
  42   23   24 am
  43   23   30 1
  44   24   31 2
  45   25   26 ar
  46   25   30 ar
  47   26   27 ar
  48   26   53 1
  49   27   28 ar
  50   27   54 1
  51   28   29 ar
  52   28   55 1
  53   29   30 ar
  54   29   56 1
  55   32   33 ar
  56   32   37 ar
  57   33   34 ar
  58   33   38 1
  59   34   35 ar
  60   34   39 1
  61   35   36 ar
  62   35   57 1
  63   36   37 ar
  64   36   58 1
  65   37   59 1
  66   38   60 1
  67   38   61 1
  68   38   62 1

#	End of record

