#	Name: ASD01910464
#	Creating user name:	WinNT
#	Creation time:	15. 06. 2019 19:55

#	Modifying user name:	WinNT
#	Modification time:	15. 06. 2019 19:55

#	Program:	/corina/corina34_cracker 3.40 0067  02.08.2006

@<TRIPOS>MOLECULE
ASD01910464
  44   47    0    0    0
SMALL
NO_CHARGES


@<TRIPOS>ATOM
   1 C1             2.7472     0.1292     1.0050 C.ar    
   2 C2             2.2627    -1.2707     0.9191 C.2     
   3 N3             0.9989    -1.6676     0.6475 N.2     
   4 C4             1.0282    -2.9767     0.6726 C.2     
   5 O5             2.2845    -3.3370     0.9532 O.3     
   6 N6             2.9793    -2.3518     1.0863 N.2     
   7 C7            -0.1358    -3.9029     0.4309 C.3     
   8 C8             0.1683    -4.8031    -0.7688 C.3     
   9 C9            -1.0266    -5.7215    -1.0354 C.3     
  10 C10           -1.2647    -6.6113     0.1887 C.3     
  11 N11           -1.4140    -5.7554     1.3736 N.am    
  12 C12           -0.3638    -4.7720     1.6716 C.3     
  13 C13           -2.4937    -5.8702     2.1720 C.2     
  14 C14           -2.5730    -5.0914     3.4212 C.2     
  15 O15           -3.4026    -6.6163     1.8619 O.2     
  16 C16            4.0853     0.3890     1.2948 C.ar    
  17 C17            4.5316     1.6920     1.3732 C.ar    
  18 C18            3.6514     2.7417     1.1647 C.ar    
  19 C19            2.3201     2.4879     0.8763 C.ar    
  20 C20            1.8666     1.1878     0.7903 C.ar    
  21 F21            4.0924     4.0163     1.2433 F       
  22 C22           -1.5424    -4.8617     4.3105 C.2     
  23 N23           -2.0332    -4.1104     5.3091 N.pl3   
  24 N24           -3.3860    -3.8604     5.0529 N.2     
  25 C25           -3.7164    -4.4350     3.9293 C.2     
  26 C26           -5.0807    -4.4104     3.2898 C.3     
  27 F27           -5.9271    -3.5768     4.0286 F       
  28 F28           -4.9740    -3.9254     1.9819 F       
  29 F29           -5.6076    -5.7062     3.2651 F       
  30 H30           -1.0315    -3.3160     0.2276 H       
  31 H31            0.3552    -4.1861    -1.6477 H       
  32 H32            1.0501    -5.4072    -0.5552 H       
  33 H33           -1.9143    -5.1179    -1.2246 H       
  34 H34           -0.8187    -6.3460    -1.9042 H       
  35 H35           -2.1728    -7.1965     0.0440 H       
  36 H36           -0.4146    -7.2797     0.3255 H       
  37 H37            0.5597    -5.2905     1.9294 H       
  38 H38           -0.6775    -4.1438     2.5053 H       
  39 H39            4.7718    -0.4285     1.4582 H       
  40 H40            5.5684     1.8943     1.5978 H       
  41 H41            1.6372     3.3089     0.7148 H       
  42 H42            0.8288     0.9908     0.5654 H       
  43 H43           -0.5279    -5.2209     4.2199 H       
  44 H44           -1.5343    -3.7944     6.0786 H       
@<TRIPOS>BOND
   1    1    2 1
   2    1   16 ar
   3    1   20 ar
   4    2    3 1
   5    2    6 2
   6    3    4 2
   7    4    5 1
   8    4    7 1
   9    5    6 1
  10    7    8 1
  11    7   12 1
  12    7   30 1
  13    8    9 1
  14    8   31 1
  15    8   32 1
  16    9   10 1
  17    9   33 1
  18    9   34 1
  19   10   11 1
  20   10   35 1
  21   10   36 1
  22   11   12 1
  23   11   13 am
  24   12   37 1
  25   12   38 1
  26   13   14 1
  27   13   15 2
  28   14   22 2
  29   14   25 1
  30   16   17 ar
  31   16   39 1
  32   17   18 ar
  33   17   40 1
  34   18   19 ar
  35   18   21 1
  36   19   20 ar
  37   19   41 1
  38   20   42 1
  39   22   23 1
  40   22   43 1
  41   23   24 1
  42   23   44 1
  43   24   25 2
  44   25   26 1
  45   26   27 1
  46   26   28 1
  47   26   29 1

#	End of record

