#	Name: ASD01916435
#	Creating user name:	WinNT
#	Creation time:	15. 06. 2019 20:07

#	Modifying user name:	WinNT
#	Modification time:	15. 06. 2019 20:07

#	Program:	/corina/corina34_cracker 3.40 0067  02.08.2006

@<TRIPOS>MOLECULE
ASD01916435
  34   36    0    0    0
SMALL
NO_CHARGES


@<TRIPOS>ATOM
   1 C1            -0.0162     1.3400     0.0094 C.2     
   2 N2             0.0021    -0.0041     0.0020 N.am    
   3 C3             1.3977    -0.4568    -0.0137 C.3     
   4 C4             2.2461     0.7903    -0.0151 C.ar    
   5 C5             3.6048     1.0059    -0.0270 C.ar    
   6 C6             4.0997     2.2992    -0.0247 C.ar    
   7 C7             3.2313     3.3766    -0.0102 C.ar    
   8 C8             1.8673     3.1714     0.0017 C.ar    
   9 C9             1.3606     1.8704    -0.0009 C.ar    
  10 O10           -1.0229     2.0211     0.0181 O.2     
  11 C11           -1.1770    -0.8735     0.0090 C.3     
  12 C12           -1.6014    -1.1689    -1.4309 C.3     
  13 C13           -2.7861    -2.0425    -1.4239 C.1     
  14 C14           -3.7310    -2.7393    -1.4182 C.1     
  15 C15           -4.8836    -3.5891    -1.4114 C.ar    
  16 C16           -5.4525    -3.9939    -2.6195 C.ar    
  17 C17           -6.5657    -4.8150    -2.5961 C.ar    
  18 C18           -7.0755    -5.2058    -1.3655 C.ar    
  19 C19           -6.4621    -4.7676    -0.2065 C.ar    
  20 N20           -5.3995    -3.9903    -0.2553 N.ar    
  21 H21            1.6084    -1.0521     0.8747 H       
  22 H22            1.5914    -1.0425    -0.9124 H       
  23 H23            4.2849     0.1671    -0.0376 H       
  24 H24            5.1664     2.4675    -0.0340 H       
  25 H25            3.6234     4.3828    -0.0078 H       
  26 H26            1.1930     4.0150     0.0134 H       
  27 H27           -0.9364    -1.8080     0.5159 H       
  28 H28           -1.9926    -0.3754     0.5333 H       
  29 H29           -1.8421    -0.2344    -1.9378 H       
  30 H30           -0.7858    -1.6670    -1.9552 H       
  31 H31           -5.0300    -3.6706    -3.5594 H       
  32 H32           -7.0281    -5.1443    -3.5149 H       
  33 H33           -7.9437    -5.8461    -1.3139 H       
  34 H34           -6.8570    -5.0700     0.7522 H       
@<TRIPOS>BOND
   1    1    2 am
   2    1    9 1
   3    1   10 2
   4    2    3 1
   5    2   11 1
   6    3    4 1
   7    3   21 1
   8    3   22 1
   9    4    5 ar
  10    4    9 ar
  11    5    6 ar
  12    5   23 1
  13    6    7 ar
  14    6   24 1
  15    7    8 ar
  16    7   25 1
  17    8    9 ar
  18    8   26 1
  19   11   12 1
  20   11   27 1
  21   11   28 1
  22   12   13 1
  23   12   29 1
  24   12   30 1
  25   13   14 3
  26   14   15 1
  27   15   16 ar
  28   15   20 ar
  29   16   17 ar
  30   16   31 1
  31   17   18 ar
  32   17   32 1
  33   18   19 ar
  34   18   33 1
  35   19   20 ar
  36   19   34 1

#	End of record

