#	Name: ASD01209223
#	Creating user name:	WinNT
#	Creation time:	15. 06. 2019 19:11

#	Modifying user name:	WinNT
#	Modification time:	15. 06. 2019 19:11

#	Program:	/corina/corina34_cracker 3.40 0067  02.08.2006

@<TRIPOS>MOLECULE
ASD01209223
  66   68    0    0    0
SMALL
NO_CHARGES


@<TRIPOS>ATOM
   1 C1            -0.3862     1.3734    -0.3895 C.ar    
   2 C2             0.0031     0.0548    -0.2062 C.ar    
   3 C3            -0.8544    -0.8472     0.4079 C.ar    
   4 C4            -2.1036    -0.4336     0.8402 C.ar    
   5 C5            -2.4992     0.8921     0.6577 C.ar    
   6 C6            -1.6316     1.7968     0.0450 C.ar    
   7 O7            -0.4681    -2.1379     0.5850 O.3     
   8 C8            -3.8315     1.3380     1.1174 C.2     
   9 N9            -4.6661     0.4637     1.7137 N.am    
  10 O10           -4.1743     2.4933     0.9576 O.2     
  11 C11           -5.9179     0.8827     2.1457 C.2     
  12 P12          -11.5086     0.3375     4.7103 P.3     
  13 O13          -12.0720    -0.8192     3.9787 O.2     
  14 O14          -10.1459     0.8121     3.9962 O.3     
  15 N15           -6.7941     0.1256     2.7287 N.2     
  16 S16           -6.5248     2.4737     1.9925 S.3     
  17 C17           -8.0283     1.9864     2.7708 C.2     
  18 C18           -7.9359     0.6902     3.0744 C.2     
  19 O19            0.4576     2.2527    -0.9911 O.3     
  20 C20           -0.0431     3.5686    -1.2356 C.3     
  21 C21           -0.9695    -3.0757    -0.2609 C.ar    
  22 C22           -0.6339    -4.4118    -0.0951 C.ar    
  23 C23           -1.1455    -5.3632    -0.9561 C.ar    
  24 C24           -1.9913    -4.9851    -1.9825 C.ar    
  25 C25           -2.3273    -3.6543    -2.1500 C.ar    
  26 C26           -1.8227    -2.6996    -1.2885 C.ar    
  27 C27           -9.0463    -0.0681     3.7548 C.3     
  28 C28            0.7303     4.2014    -2.3943 C.3     
  29 C29            0.1324     4.4229     0.0215 C.3     
  30 S30           -2.6415    -6.2011    -3.0793 S.o2    
  31 O31           -2.9044    -5.4863    -4.2790 O.2     
  32 O32           -1.6839    -7.2505    -3.0467 O.2     
  33 C33           -4.1922    -6.7300    -2.3007 C.3     
  34 C34          -12.7104     1.7082     4.6980 C.3     
  35 C35          -11.1559    -0.1459     6.4323 C.3     
  36 O36            2.0958     4.3812    -2.0137 O.3     
  37 C37            2.9101     4.9688    -3.0304 C.3     
  38 H38            0.9763    -0.2710    -0.5428 H       
  39 H39           -2.7707    -1.1363     1.3174 H       
  40 H40           -1.9338     2.8238    -0.0978 H       
  41 H41           -4.3925    -0.4581     1.8412 H       
  42 H42           -8.8754     2.6258     2.9704 H       
  43 H43           -1.1010     3.5130    -1.4923 H       
  44 H44            0.0270    -4.7076     0.7063 H       
  45 H45           -0.8843    -6.4033    -0.8276 H       
  46 H46           -2.9878    -3.3616    -2.9527 H       
  47 H47           -2.0854    -1.6603    -1.4198 H       
  48 H48           -8.6858    -0.4676     4.7027 H       
  49 H49           -9.3713    -0.8884     3.1148 H       
  50 H50            0.6788     3.5480    -3.2652 H       
  51 H51            0.2910     5.1684    -2.6392 H       
  52 H52           -0.2495     5.4266    -0.1651 H       
  53 H53           -0.4185     3.9721     0.8469 H       
  54 H54            1.1903     4.4785     0.2781 H       
  55 H55           -4.8592    -5.8737    -2.2010 H       
  56 H56           -4.6681    -7.4912    -2.9191 H       
  57 H57           -3.9811    -7.1430    -1.3144 H       
  58 H58          -13.6330     1.3869     5.1814 H       
  59 H59          -12.2955     2.5600     5.2367 H       
  60 H60          -12.9213     1.9972     3.6683 H       
  61 H61          -10.4373    -0.9655     6.4397 H       
  62 H62          -10.7409     0.7060     6.9711 H       
  63 H63          -12.0784    -0.4672     6.9157 H       
  64 H64            2.9039     4.3314    -3.9145 H       
  65 H65            2.5160     5.9518    -3.2884 H       
  66 H66            3.9314     5.0716    -2.6637 H       
@<TRIPOS>BOND
   1    1    2 ar
   2    1   19 1
   3    1    6 ar
   4    2    3 ar
   5    2   38 1
   6    3    4 ar
   7    3    7 1
   8    4    5 ar
   9    4   39 1
  10    5    6 ar
  11    5    8 1
  12    6   40 1
  13    7   21 1
  14    8    9 am
  15    8   10 2
  16    9   11 1
  17    9   41 1
  18   11   15 2
  19   11   16 1
  20   12   13 2
  21   12   34 1
  22   12   35 1
  23   12   14 1
  24   14   27 1
  25   15   18 1
  26   16   17 1
  27   17   18 2
  28   17   42 1
  29   18   27 1
  30   19   20 1
  31   20   28 1
  32   20   29 1
  33   20   43 1
  34   21   22 ar
  35   21   26 ar
  36   22   23 ar
  37   22   44 1
  38   23   24 ar
  39   23   45 1
  40   24   25 ar
  41   24   30 1
  42   25   26 ar
  43   25   46 1
  44   26   47 1
  45   27   48 1
  46   27   49 1
  47   28   36 1
  48   28   50 1
  49   28   51 1
  50   29   52 1
  51   29   53 1
  52   29   54 1
  53   30   31 2
  54   30   32 2
  55   30   33 1
  56   33   55 1
  57   33   56 1
  58   33   57 1
  59   34   58 1
  60   34   59 1
  61   34   60 1
  62   35   61 1
  63   35   62 1
  64   35   63 1
  65   36   37 1
  66   37   64 1
  67   37   65 1
  68   37   66 1

#	End of record

