#	Name: ASD00840158
#	Creating user name:	WinNT
#	Creation time:	15. 06. 2019 18:37

#	Modifying user name:	WinNT
#	Modification time:	15. 06. 2019 18:37

#	Program:	/corina/corina34_cracker 3.40 0067  02.08.2006

@<TRIPOS>MOLECULE
ASD00840158
  42   44    0    0    0
SMALL
NO_CHARGES


@<TRIPOS>ATOM
   1 C1             0.2666     1.6598     0.1529 C.2     
   2 C2            -0.0611     0.1888     0.1556 C.3     
   3 O3             1.3790     2.0304    -0.1386 O.2     
   4 O4            -0.6789     2.5586     0.4692 O.3     
   5 N5             2.4653    -1.5111     1.6303 N.am    
   6 C6             2.2294    -0.3443     1.0071 C.2     
   7 C7             1.2163    -0.6186    -0.0838 C.3     
   8 C8             0.9373    -2.0992     0.0373 C.ar    
   9 C9             0.1146    -2.9564    -0.6589 C.ar    
  10 C10            0.0642    -4.2966    -0.3157 C.ar    
  11 C11            0.8436    -4.7696     0.7286 C.ar    
  12 C12            1.6687    -3.9101     1.4276 C.ar    
  13 C13            1.7232    -2.5604     1.0857 C.ar    
  14 O14            2.7330     0.7274     1.2697 O.2     
  15 F15            0.7955    -6.0773     1.0647 F       
  16 C16            3.0203    -0.8300    -1.8225 C.ar    
  17 C17            1.7969    -0.2968    -1.4367 C.ar    
  18 C18            1.1185     0.5334    -2.3115 C.ar    
  19 C19            1.6906     0.8022    -3.5475 C.ar    
  20 C20            2.9098     0.2377    -3.8645 C.ar    
  21 N21            3.5331    -0.5504    -3.0090 N.ar    
  22 O22            3.6982    -1.6409    -0.9718 O.3     
  23 C23            4.8917    -2.2499    -1.4685 C.3     
  24 C24            5.4482    -3.2129    -0.4179 C.3     
  25 Cl25          -0.9718    -5.3812    -1.1899 Cl      
  26 C26           -0.2654     3.9478     0.5552 C.3     
  27 H27           -0.4896    -0.0862     1.1193 H       
  28 H28           -0.7796    -0.0247    -0.6358 H       
  29 H29            3.0834    -1.6133     2.3709 H       
  30 H30           -0.4911    -2.5834    -1.4715 H       
  31 H31            2.2730    -4.2850     2.2404 H       
  32 H32            0.1654     0.9622    -2.0390 H       
  33 H33            1.1871     1.4459    -4.2536 H       
  34 H34            3.3591     0.4434    -4.8248 H       
  35 H35            4.6659    -2.7998    -2.3821 H       
  36 H36            5.6314    -1.4784    -1.6822 H       
  37 H37            5.5913    -2.6812     0.5228 H       
  38 H38            4.7459    -4.0330    -0.2685 H       
  39 H39            6.4038    -3.6106    -0.7595 H       
  40 H40            0.0537     4.2934    -0.4280 H       
  41 H41           -1.1022     4.5552     0.8999 H       
  42 H42            0.5626     4.0375     1.2583 H       
@<TRIPOS>BOND
   1    1    2 1
   2    1    3 2
   3    1    4 1
   4    2    7 1
   5    2   27 1
   6    2   28 1
   7    4   26 1
   8    5    6 am
   9    5   13 1
  10    5   29 1
  11    6    7 1
  12    6   14 2
  13    7    8 1
  14    7   17 1
  15    8    9 ar
  16    8   13 ar
  17    9   10 ar
  18    9   30 1
  19   10   11 ar
  20   10   25 1
  21   11   12 ar
  22   11   15 1
  23   12   13 ar
  24   12   31 1
  25   16   17 ar
  26   16   21 ar
  27   16   22 1
  28   17   18 ar
  29   18   19 ar
  30   18   32 1
  31   19   20 ar
  32   19   33 1
  33   20   21 ar
  34   20   34 1
  35   22   23 1
  36   23   24 1
  37   23   35 1
  38   23   36 1
  39   24   37 1
  40   24   38 1
  41   24   39 1
  42   26   40 1
  43   26   41 1
  44   26   42 1

#	End of record

