#	Name: ASD07930088
#	Creating user name:	WinNT
#	Creation time:	15. 06. 2019 21:11

#	Modifying user name:	WinNT
#	Modification time:	15. 06. 2019 21:11

#	Program:	/corina/corina34_cracker 3.40 0067  02.08.2006

@<TRIPOS>MOLECULE
ASD07930088
  28   29    0    0    0
SMALL
NO_CHARGES


@<TRIPOS>ATOM
   1 S1            -0.0211     1.7049     0.0114 S.3     
   2 C2             0.0021    -0.0041     0.0020 C.2     
   3 N3             1.2148    -0.4385    -0.0119 N.2     
   4 C4             2.1812     0.4682    -0.0163 C.2     
   5 C5             1.7402     1.7423    -0.0052 C.2     
   6 C6            -1.2242    -0.8800     0.0098 C.3     
   7 F7            -1.5906    -1.1576     1.3311 F       
   8 F8            -2.2741    -0.2182    -0.6360 F       
   9 F9            -0.9464    -2.0772    -0.6585 F       
  10 C10            3.6212     0.1127    -0.0314 C.ar    
  11 C11            4.0132    -1.2296    -0.0425 C.ar    
  12 C12            5.3598    -1.5526    -0.0571 C.ar    
  13 C13            6.3126    -0.5505    -0.0603 C.ar    
  14 C14            5.9280     0.7781    -0.0495 C.ar    
  15 C15            4.5887     1.1142    -0.0406 C.ar    
  16 O16            3.0760    -2.2135    -0.0383 O.3     
  17 C17            3.5505    -3.5614    -0.0502 C.3     
  18 C18            2.3593    -4.5215    -0.0434 C.3     
  19 Br19           1.3408    -4.3140    -1.7122 Br      
  20 H20            2.3572     2.6286    -0.0063 H       
  21 H21            5.6661    -2.5882    -0.0656 H       
  22 H22            7.3618    -0.8063    -0.0711 H       
  23 H23            6.6778     1.5554    -0.0521 H       
  24 H24            4.2919     2.1526    -0.0367 H       
  25 H25            4.1470    -3.7288    -0.9471 H       
  26 H26            4.1647    -3.7382     0.8328 H       
  27 H27            2.7197    -5.5471     0.0371 H       
  28 H28            1.7149    -4.2951     0.8060 H       
@<TRIPOS>BOND
   1    1    2 1
   2    1    5 1
   3    2    3 2
   4    2    6 1
   5    3    4 1
   6    4    5 2
   7    4   10 1
   8    5   20 1
   9    6    7 1
  10    6    8 1
  11    6    9 1
  12   10   11 ar
  13   10   15 ar
  14   11   12 ar
  15   11   16 1
  16   12   13 ar
  17   12   21 1
  18   13   14 ar
  19   13   22 1
  20   14   15 ar
  21   14   23 1
  22   15   24 1
  23   16   17 1
  24   17   18 1
  25   17   25 1
  26   17   26 1
  27   18   19 1
  28   18   27 1
  29   18   28 1

#	End of record

