#	Name: ASD02030351
#	Creating user name:	WinNT
#	Creation time:	15. 06. 2019 20:15

#	Modifying user name:	WinNT
#	Modification time:	15. 06. 2019 20:15

#	Program:	/corina/corina34_cracker 3.40 0067  02.08.2006

@<TRIPOS>MOLECULE
ASD02030351
  38   40    0    0    0
SMALL
NO_CHARGES


@<TRIPOS>ATOM
   1 N1            -0.3221     1.4634    -0.9711 N.3     
   2 C2            -0.3008    -0.0066    -0.9807 C.3     
   3 C3             0.7407    -0.4948    -1.9924 C.3     
   4 N4             2.0416     0.1052    -1.6610 N.am    
   5 C5             2.1128     1.5680    -1.5087 C.3     
   6 C6             0.9809     2.0075    -0.5788 C.3     
   7 C7             3.1379    -0.6622    -1.5006 C.2     
   8 O8             4.2266    -0.1431    -1.3527 O.2     
   9 C9             3.0156    -2.1387    -1.5048 C.ar    
  10 C10            4.1327    -2.9221    -1.7789 C.ar    
  11 C11            0.9621     3.5176    -0.3114 C.3     
  12 C12            1.8970     3.2362     0.8777 C.3     
  13 C13            1.3045     1.8167     0.9083 C.3     
  14 N14            1.8421    -2.7024    -1.2416 N.ar    
  15 C15            1.6916    -4.0130    -1.2350 C.ar    
  16 C16            2.7671    -4.8549    -1.5060 C.ar    
  17 C17            4.0065    -4.3037    -1.7796 C.ar    
  18 O18            0.4749    -4.5468    -0.9604 O.3     
  19 C19           -0.5889    -3.6318    -0.6900 C.3     
  20 H20           -0.6108     1.8267    -1.8670 H       
  21 H21           -0.0419    -0.3728     0.0128 H       
  22 H22           -1.2845    -0.3825    -1.2617 H       
  23 H23            0.8163    -1.5811    -1.9434 H       
  24 H24            0.4441    -0.1923    -2.9967 H       
  25 H25            3.0735     1.8463    -1.0756 H       
  26 H26            1.9954     2.0451    -2.4817 H       
  27 H27            5.0861    -2.4602    -1.9888 H       
  28 H28            1.4262     4.1072    -1.1021 H       
  29 H29           -0.0165     3.8972    -0.0175 H       
  30 H30            2.9550     3.2619     0.6167 H       
  31 H31            1.6645     3.8255     1.7647 H       
  32 H32            0.4205     1.7257     1.5396 H       
  33 H33            2.0438     1.0386     1.0983 H       
  34 H34            2.6362    -5.9269    -1.4988 H       
  35 H35            4.8561    -4.9353    -1.9932 H       
  36 H36           -0.3333    -3.0237     0.1777 H       
  37 H37           -0.7409    -2.9856    -1.5545 H       
  38 H38           -1.5039    -4.1882    -0.4870 H       
@<TRIPOS>BOND
   1    1    2 1
   2    1    6 1
   3    1   20 1
   4    2    3 1
   5    2   21 1
   6    2   22 1
   7    3    4 1
   8    3   23 1
   9    3   24 1
  10    4    5 1
  11    4    7 am
  12    5    6 1
  13    5   25 1
  14    5   26 1
  15    6   11 1
  16    6   13 1
  17    7    8 2
  18    7    9 1
  19    9   10 ar
  20    9   14 ar
  21   10   17 ar
  22   10   27 1
  23   11   12 1
  24   11   28 1
  25   11   29 1
  26   12   13 1
  27   12   30 1
  28   12   31 1
  29   13   32 1
  30   13   33 1
  31   14   15 ar
  32   15   16 ar
  33   15   18 1
  34   16   17 ar
  35   16   34 1
  36   17   35 1
  37   18   19 1
  38   19   36 1
  39   19   37 1
  40   19   38 1

#	End of record

