#	Name: ASD00069196
#	Creating user name:	WinNT
#	Creation time:	15. 06. 2019 18:29

#	Modifying user name:	WinNT
#	Modification time:	15. 06. 2019 18:29

#	Program:	/corina/corina34_cracker 3.40 0067  02.08.2006

@<TRIPOS>MOLECULE
ASD00069196
  75   80    0    0    0
SMALL
NO_CHARGES


@<TRIPOS>ATOM
   1 C1            -0.1048     1.2064    -0.5014 C.2     
   2 N2            -0.0101     0.0045     0.0223 N.2     
   3 C3             1.2364    -0.4512    -0.1544 C.2     
   4 C4             1.9481     0.5097    -0.8172 C.2     
   5 N5             1.1081     1.5462    -1.0338 N.pl3   
   6 C6            -1.3173     2.0450    -0.5178 C.2     
   7 O7            -1.2882     3.1462    -1.0334 O.2     
   8 N8            -2.4579     1.5914     0.0387 N.am    
   9 C9             1.4520    -3.8870     1.3614 C.ar    
  10 C10            0.9297    -2.6734     0.9645 C.ar    
  11 C11            1.7547    -1.7676     0.2916 C.ar    
  12 C12            3.0815    -2.1363     0.0499 C.ar    
  13 C13            3.5223    -3.3699     0.4813 C.ar    
  14 N14            2.7105    -4.1962     1.1135 N.ar    
  15 C15            0.5752    -4.8702     2.0932 C.3     
  16 C16           -3.5750     2.4311     0.1293 C.ar    
  17 C17           -4.8593     1.9006     0.0152 C.ar    
  18 C18           -5.9626     2.7388     0.1066 C.ar    
  19 C19           -5.7844     4.0963     0.3103 C.ar    
  20 C20           -4.5100     4.6208     0.4227 C.ar    
  21 C21           -3.4068     3.7922     0.3386 C.ar    
  22 N22           -5.0361     0.5265    -0.1913 N.3     
  23 C23           -5.8154    -0.0736     0.8991 C.3     
  24 C24           -5.8645    -1.5923     0.7169 C.3     
  25 C25           -6.5067    -1.9189    -0.6342 C.3     
  26 C26           -5.7039    -1.2423    -1.7488 C.3     
  27 C27           -5.6595     0.2662    -1.4952 C.3     
  28 C28           -6.5035    -3.4110    -0.8458 C.2     
  29 O29           -5.6094    -3.9318    -1.4785 O.2     
  30 C30          -10.1071    -6.0987     0.8611 C.3     
  31 N31          -11.1217    -6.3480     1.8941 N.am    
  32 C32          -10.5599    -6.4782     3.1093 C.2     
  33 C33           -9.0579    -6.3139     3.0088 C.3     
  34 C34           -8.8436    -5.6709     1.6267 C.3     
  35 C35           -7.5958    -6.2335     0.9610 C.3     
  36 C36           -7.4503    -5.6312    -0.4415 C.3     
  37 N37           -7.4942    -4.1666    -0.3319 N.am    
  38 C38           -8.6360    -3.5398     0.3478 C.3     
  39 C39           -8.7745    -4.1550     1.7453 C.3     
  40 O40          -11.1679    -6.6954     4.1360 O.2     
  41 F41           -7.2091     2.2298    -0.0038 F       
  42 H42            2.9856     0.4518    -1.1118 H       
  43 H43            1.3253     2.3775    -1.4840 H       
  44 H44           -2.5051     0.6833     0.3764 H       
  45 H45           -0.1015    -2.4269     1.1704 H       
  46 H46            3.7513    -1.4652    -0.4672 H       
  47 H47            4.5454    -3.6638     0.2989 H       
  48 H48            0.0808    -5.5222     1.3731 H       
  49 H49            1.1864    -5.4705     2.7671 H       
  50 H50           -0.1757    -4.3289     2.6687 H       
  51 H51           -6.6431     4.7475     0.3812 H       
  52 H52           -4.3762     5.6807     0.5813 H       
  53 H53           -2.4132     4.2051     0.4318 H       
  54 H54           -5.3457     0.1627     1.8539 H       
  55 H55           -6.8290     0.3269     0.8842 H       
  56 H56           -4.8521    -1.9952     0.7456 H       
  57 H57           -6.4561    -2.0359     1.5178 H       
  58 H58           -7.5323    -1.5502    -0.6486 H       
  59 H59           -4.6890    -1.6397    -1.7590 H       
  60 H60           -6.1808    -1.4359    -2.7097 H       
  61 H61           -6.6739     0.6652    -1.4989 H       
  62 H62           -5.0765     0.7493    -2.2793 H       
  63 H63           -9.9146    -7.0090     0.2933 H       
  64 H64          -10.4342    -5.2997     0.1957 H       
  65 H65          -12.0743    -6.4104     1.7220 H       
  66 H66           -8.6920    -5.6559     3.7970 H       
  67 H67           -8.5633    -7.2839     3.0596 H       
  68 H68           -6.7197    -5.9802     1.5580 H       
  69 H69           -7.6823    -7.3173     0.8839 H       
  70 H70           -6.4976    -5.9372    -0.8738 H       
  71 H71           -8.2687    -5.9752    -1.0739 H       
  72 H72           -8.4650    -2.4669     0.4360 H       
  73 H73           -9.5463    -3.7215    -0.2235 H       
  74 H74           -9.6853    -3.7855     2.2166 H       
  75 H75           -7.9127    -3.8769     2.3520 H       
@<TRIPOS>BOND
   1    1    2 2
   2    1    5 1
   3    1    6 1
   4    2    3 1
   5    3    4 2
   6    3   11 1
   7    4    5 1
   8    4   42 1
   9    5   43 1
  10    6    7 2
  11    6    8 am
  12    8   16 1
  13    8   44 1
  14    9   10 ar
  15    9   14 ar
  16    9   15 1
  17   10   11 ar
  18   10   45 1
  19   11   12 ar
  20   12   13 ar
  21   12   46 1
  22   13   14 ar
  23   13   47 1
  24   15   48 1
  25   15   49 1
  26   15   50 1
  27   16   17 ar
  28   16   21 ar
  29   17   18 ar
  30   17   22 1
  31   18   19 ar
  32   18   41 1
  33   19   20 ar
  34   19   51 1
  35   20   21 ar
  36   20   52 1
  37   21   53 1
  38   22   23 1
  39   22   27 1
  40   23   24 1
  41   23   54 1
  42   23   55 1
  43   24   25 1
  44   24   56 1
  45   24   57 1
  46   25   26 1
  47   25   28 1
  48   25   58 1
  49   26   27 1
  50   26   59 1
  51   26   60 1
  52   27   61 1
  53   27   62 1
  54   28   29 2
  55   28   37 am
  56   30   31 1
  57   30   34 1
  58   30   63 1
  59   30   64 1
  60   31   32 am
  61   31   65 1
  62   32   33 1
  63   32   40 2
  64   33   34 1
  65   33   66 1
  66   33   67 1
  67   34   35 1
  68   34   39 1
  69   35   36 1
  70   35   68 1
  71   35   69 1
  72   36   37 1
  73   36   70 1
  74   36   71 1
  75   37   38 1
  76   38   39 1
  77   38   72 1
  78   38   73 1
  79   39   74 1
  80   39   75 1

#	End of record

