#	Name: ASD09740251
#	Creating user name:	WinNT
#	Creation time:	15. 06. 2019 21:23

#	Modifying user name:	WinNT
#	Modification time:	15. 06. 2019 21:23

#	Program:	/corina/corina34_cracker 3.40 0067  02.08.2006

@<TRIPOS>MOLECULE
ASD09740251
  42   45    0    0    0
SMALL
NO_CHARGES


@<TRIPOS>ATOM
   1 O1            -0.0144     1.2087     0.0087 O.3     
   2 N2             0.0021    -0.0041     0.0020 N.2     
   3 C3             1.2352     1.6834    -0.0007 C.2     
   4 N4             2.0399     0.6501    -0.0139 N.2     
   5 C5             1.2355    -0.4367    -0.0121 C.2     
   6 C6             1.6717    -1.8560    -0.0239 C.ar    
   7 C7             1.6416     3.1345     0.0032 C.3     
   8 C8             0.7366    -2.8940    -0.0205 C.ar    
   9 C9             1.1850    -4.1995    -0.0323 C.ar    
  10 N10            2.4754    -4.4718    -0.0465 N.ar    
  11 C11            3.3902    -3.5217    -0.0502 C.ar    
  12 C12            3.0281    -2.1896    -0.0445 C.ar    
  13 C13            1.0722     3.8270    -1.2366 C.3     
  14 C14            1.4848     5.3003    -1.2327 C.3     
  15 C15            0.9403     5.9790     0.0258 C.3     
  16 C16            1.5097     5.2866     1.2657 C.3     
  17 C17            1.0971     3.8132     1.2617 C.3     
  18 C18            1.3467     7.4301     0.0297 C.ar    
  19 C19            0.3803     8.4185     0.0448 C.ar    
  20 C20            0.7531     9.7496     0.0483 C.ar    
  21 C21            2.0923    10.0924     0.0373 C.ar    
  22 C22            3.0586     9.1040     0.0231 C.ar    
  23 C23            2.6859     7.7729     0.0240 C.ar    
  24 H24            2.7291     3.2073    -0.0072 H       
  25 H25           -0.3215    -2.6782    -0.0085 H       
  26 H26            0.4697    -5.0086    -0.0294 H       
  27 H27            4.4364    -3.7895    -0.0620 H       
  28 H28            3.7825    -1.4168    -0.0475 H       
  29 H29            1.4601     3.3434    -2.1332 H       
  30 H30           -0.0153     3.7542    -1.2262 H       
  31 H31            2.5723     5.3730    -1.2431 H       
  32 H32            1.0791     5.7936    -2.1159 H       
  33 H33           -0.1472     5.9062     0.0362 H       
  34 H34            2.5972     5.3593     1.2552 H       
  35 H35            1.1218     5.7701     2.1622 H       
  36 H36            0.0095     3.7405     1.2721 H       
  37 H37            1.5027     3.3199     2.1450 H       
  38 H38           -0.6659     8.1507     0.0534 H       
  39 H39           -0.0019    10.5218     0.0594 H       
  40 H40            2.3835    11.1324     0.0393 H       
  41 H41            4.1049     9.3718     0.0142 H       
  42 H42            3.4408     7.0007     0.0129 H       
@<TRIPOS>BOND
   1    1    2 1
   2    1    3 1
   3    2    5 2
   4    3    4 2
   5    3    7 1
   6    4    5 1
   7    5    6 1
   8    6    8 ar
   9    6   12 ar
  10    7   13 1
  11    7   17 1
  12    7   24 1
  13    8    9 ar
  14    8   25 1
  15    9   10 ar
  16    9   26 1
  17   10   11 ar
  18   11   12 ar
  19   11   27 1
  20   12   28 1
  21   13   14 1
  22   13   29 1
  23   13   30 1
  24   14   15 1
  25   14   31 1
  26   14   32 1
  27   15   16 1
  28   15   18 1
  29   15   33 1
  30   16   17 1
  31   16   34 1
  32   16   35 1
  33   17   36 1
  34   17   37 1
  35   18   19 ar
  36   18   23 ar
  37   19   20 ar
  38   19   38 1
  39   20   21 ar
  40   20   39 1
  41   21   22 ar
  42   21   40 1
  43   22   23 ar
  44   22   41 1
  45   23   42 1

#	End of record

