#	Name: ASD03090027
#	Creating user name:	WinNT
#	Creation time:	15. 06. 2019 20:28

#	Modifying user name:	WinNT
#	Modification time:	15. 06. 2019 20:28

#	Program:	/corina/corina34_cracker 3.40 0067  02.08.2006

@<TRIPOS>MOLECULE
ASD03090027
  45   47    0    0    0
SMALL
NO_CHARGES


@<TRIPOS>ATOM
   1 C1            -0.0723     1.7258     0.1826 C.2     
   2 C2            -0.0392     0.2139     0.1467 C.3     
   3 C3            -1.3573    -0.1670    -0.5707 C.3     
   4 C4            -2.2119     1.0924    -0.2944 C.3     
   5 N5            -1.2426     2.1671    -0.0524 N.2     
   6 C6            -1.5828     3.5916    -0.0859 C.3     
   7 C7            -3.0845     0.8811     0.9445 C.3     
   8 C8             1.1245     2.5966     0.4664 C.3     
   9 C9             1.7473     3.0536    -0.8543 C.3     
  10 C10            1.1510    -0.2709    -0.6404 C.ar    
  11 C11           -0.0157    -0.3484     1.5446 C.ar    
  12 C12           -0.1283    -1.7117     1.7432 C.ar    
  13 C13           -0.1068    -2.2275     3.0255 C.ar    
  14 C14            0.0276    -1.3800     4.1093 C.ar    
  15 C15            0.1410    -0.0167     3.9107 C.ar    
  16 C16            0.1240     0.4987     2.6281 C.ar    
  17 C17            1.2231    -0.0344    -2.0004 C.ar    
  18 C18            2.3149    -0.4792    -2.7224 C.ar    
  19 C19            3.3347    -1.1600    -2.0842 C.ar    
  20 C20            3.2630    -1.3957    -0.7240 C.ar    
  21 C21            2.1733    -0.9472    -0.0013 C.ar    
  22 H22           -1.1970    -0.3068    -1.6397 H       
  23 H23           -1.8068    -1.0533    -0.1230 H       
  24 H24           -2.8320     1.3264    -1.1598 H       
  25 H25           -2.6574     3.7053    -0.2288 H       
  26 H26           -1.2902     4.0573     0.8552 H       
  27 H27           -1.0540     4.0722    -0.9090 H       
  28 H28           -2.4485     0.6865     1.8080 H       
  29 H29           -3.6802     1.7757     1.1262 H       
  30 H30           -3.7466     0.0306     0.7818 H       
  31 H31            0.8114     3.4681     1.0413 H       
  32 H32            1.8593     2.0293     1.0376 H       
  33 H33            2.0028     2.1817    -1.4564 H       
  34 H34            1.0338     3.6737    -1.3971 H       
  35 H35            2.6489     3.6311    -0.6501 H       
  36 H36           -0.2333    -2.3739     0.8965 H       
  37 H37           -0.1955    -3.2927     3.1807 H       
  38 H38            0.0436    -1.7829     5.1112 H       
  39 H39            0.2457     0.6455     4.7574 H       
  40 H40            0.2126     1.5638     2.4729 H       
  41 H41            0.4264     0.4975    -2.4990 H       
  42 H42            2.3709    -0.2950    -3.7851 H       
  43 H43            4.1873    -1.5081    -2.6484 H       
  44 H44            4.0596    -1.9279    -0.2254 H       
  45 H45            2.1173    -1.1313     1.0615 H       
@<TRIPOS>BOND
   1    1    2 1
   2    1    8 1
   3    1    5 2
   4    2    3 1
   5    2   10 1
   6    2   11 1
   7    3    4 1
   8    3   22 1
   9    3   23 1
  10    4    5 1
  11    4    7 1
  12    4   24 1
  13    5    6 1
  14    6   25 1
  15    6   26 1
  16    6   27 1
  17    7   28 1
  18    7   29 1
  19    7   30 1
  20    8    9 1
  21    8   31 1
  22    8   32 1
  23    9   33 1
  24    9   34 1
  25    9   35 1
  26   10   17 ar
  27   10   21 ar
  28   11   12 ar
  29   11   16 ar
  30   12   13 ar
  31   12   36 1
  32   13   14 ar
  33   13   37 1
  34   14   15 ar
  35   14   38 1
  36   15   16 ar
  37   15   39 1
  38   16   40 1
  39   17   18 ar
  40   17   41 1
  41   18   19 ar
  42   18   42 1
  43   19   20 ar
  44   19   43 1
  45   20   21 ar
  46   20   44 1
  47   21   45 1

#	End of record

