#	Name: ASD01810356
#	Creating user name:	WinNT
#	Creation time:	15. 06. 2019 19:24

#	Modifying user name:	WinNT
#	Modification time:	15. 06. 2019 19:24

#	Program:	/corina/corina34_cracker 3.40 0067  02.08.2006

@<TRIPOS>MOLECULE
ASD01810356
  29   30    0    0    0
SMALL
NO_CHARGES


@<TRIPOS>ATOM
   1 C1            -0.0173     1.4248     0.0099 C.3     
   2 O2             0.0021    -0.0041     0.0020 O.3     
   3 C3             0.6035    -0.6049    -1.0518 C.ar    
   4 C4             1.9633    -0.9018    -0.9980 C.ar    
   5 C5             2.6141    -1.5242    -2.0746 C.ar    
   6 C6             1.9160    -1.8584    -3.2194 C.ar    
   7 C7             0.4865    -1.5560    -3.2972 C.ar    
   8 C8            -0.1500    -0.9330    -2.1973 C.ar    
   9 C9            -1.5221    -0.6425    -2.2714 C.ar    
  10 C10           -2.2194    -0.9633    -3.3969 C.ar    
  11 C11           -1.5911    -1.5762    -4.4775 C.ar    
  12 C12           -0.2614    -1.8761    -4.4364 C.ar    
  13 C13            2.6035    -2.5115    -4.3493 C.2     
  14 C14            3.9011    -2.7818    -4.2702 C.2     
  15 C15            2.7317    -0.5563     0.2095 C.2     
  16 O16            2.1790    -0.0168     1.1478 O.2     
  17 O17            4.0481    -0.8382     0.2742 O.3     
  18 H18            1.0053     1.8021     0.0021 H       
  19 H19           -0.5445     1.7859    -0.8732 H       
  20 H20           -0.5275     1.7763     0.9067 H       
  21 H21            3.6695    -1.7434    -2.0080 H       
  22 H22           -2.0220    -0.1675    -1.4401 H       
  23 H23           -3.2745    -0.7393    -3.4515 H       
  24 H24           -2.1654    -1.8211    -5.3588 H       
  25 H25            0.2140    -2.3517    -5.2815 H       
  26 H26            2.0515    -2.7699    -5.2408 H       
  27 H27            4.4045    -3.2600    -5.0974 H       
  28 H28            4.4531    -2.5234    -3.3786 H       
  29 H29            4.5103    -0.5925     1.0872 H       
@<TRIPOS>BOND
   1    1    2 1
   2    1   18 1
   3    1   19 1
   4    1   20 1
   5    2    3 1
   6    3    4 ar
   7    3    8 ar
   8    4    5 ar
   9    4   15 1
  10    5    6 ar
  11    5   21 1
  12    6    7 ar
  13    6   13 1
  14    7    8 ar
  15    7   12 ar
  16    8    9 ar
  17    9   10 ar
  18    9   22 1
  19   10   11 ar
  20   10   23 1
  21   11   12 ar
  22   11   24 1
  23   12   25 1
  24   13   14 2
  25   13   26 1
  26   14   27 1
  27   14   28 1
  28   15   16 2
  29   15   17 1
  30   17   29 1

#	End of record

