#	Name: ASD03731050
#	Creating user name:	WinNT
#	Creation time:	15. 06. 2019 20:45

#	Modifying user name:	WinNT
#	Modification time:	15. 06. 2019 20:45

#	Program:	/corina/corina34_cracker 3.40 0067  02.08.2006

@<TRIPOS>MOLECULE
ASD03731050
  51   57    0    0    0
SMALL
NO_CHARGES


@<TRIPOS>ATOM
   1 O1             0.0876     1.7638    -1.6570 O.3     
   2 C2             0.1131     0.3565    -1.9600 C.3     
   3 O3             1.4180     0.1530    -2.5332 O.3     
   4 C4             2.2099     1.1263    -1.9942 C.ar    
   5 C5             1.3914     2.1170    -1.4566 C.ar    
   6 C6             3.5856     1.2484    -1.9169 C.ar    
   7 C7             4.1616     2.3580    -1.3057 C.ar    
   8 C8             3.3338     3.3451    -0.7796 C.ar    
   9 C9             1.9616     3.2232    -0.8496 C.ar    
  10 O10            5.4771     2.6609    -1.1106 O.3     
  11 C11            4.2385     4.4109    -0.2215 C.3     
  12 C12            5.6042     4.0687    -0.8326 C.3     
  13 N13            3.5957     6.4611     0.5580 N.am    
  14 C14            3.7877     5.7931    -0.5970 C.2     
  15 C15            4.2773     4.3987     1.2779 C.ar    
  16 C16            4.6069     3.4432     2.2132 C.ar    
  17 C17            4.5423     3.7430     3.5622 C.ar    
  18 C18            4.1460     5.0041     3.9688 C.ar    
  19 C19            3.8141     5.9643     3.0359 C.ar    
  20 C20            3.8764     5.6716     1.6757 C.ar    
  21 O21            3.6280     6.2241    -1.7194 O.2     
  22 C22            3.1458     7.8533     0.6324 C.3     
  23 O23           -0.4152     8.5876     0.8400 O.3     
  24 C24           -0.4047     7.2491     0.9020 C.2     
  25 N25            0.8281     6.8302     0.8378 N.2     
  26 C26            1.6426     7.8908     0.7328 C.2     
  27 C27            0.8657     9.0043     0.7334 C.2     
  28 C28            1.3316    10.4037     0.6354 C.ar    
  29 C29            0.4077    11.4439     0.5239 C.ar    
  30 C30            0.8491    12.7478     0.4333 C.ar    
  31 C31            2.2044    13.0254     0.4523 C.ar    
  32 C32            3.1256    11.9990     0.5626 C.ar    
  33 C33            2.6972    10.6911     0.6598 C.ar    
  34 H34           -0.0018    -0.2332    -1.0505 H       
  35 H35           -0.6651     0.1058    -2.6809 H       
  36 H36            4.2168     0.4774    -2.3334 H       
  37 H37            1.3304     3.9928    -0.4303 H       
  38 H38            6.4054     4.2511    -0.1164 H       
  39 H39            5.7692     4.6315    -1.7514 H       
  40 H40            4.9156     2.4590     1.8933 H       
  41 H41            4.8004     2.9939     4.2961 H       
  42 H42            4.0959     5.2381     5.0219 H       
  43 H43            3.5047     6.9466     3.3613 H       
  44 H44            3.5806     8.3292     1.5113 H       
  45 H45            3.4634     8.3862    -0.2638 H       
  46 H46           -1.2771     6.6187     0.9908 H       
  47 H47           -0.6505    11.2285     0.5083 H       
  48 H48            0.1353    13.5536     0.3470 H       
  49 H49            2.5449    14.0478     0.3804 H       
  50 H50            4.1821    12.2223     0.5765 H       
  51 H51            3.4171     9.8911     0.7500 H       
@<TRIPOS>BOND
   1    1    2 1
   2    1    5 1
   3    2    3 1
   4    2   34 1
   5    2   35 1
   6    3    4 1
   7    4    5 ar
   8    4    6 ar
   9    5    9 ar
  10    6    7 ar
  11    6   36 1
  12    7    8 ar
  13    7   10 1
  14    8    9 ar
  15    8   11 1
  16    9   37 1
  17   10   12 1
  18   11   12 1
  19   11   14 1
  20   11   15 1
  21   12   38 1
  22   12   39 1
  23   13   14 am
  24   13   20 1
  25   13   22 1
  26   14   21 2
  27   15   16 ar
  28   15   20 ar
  29   16   17 ar
  30   16   40 1
  31   17   18 ar
  32   17   41 1
  33   18   19 ar
  34   18   42 1
  35   19   20 ar
  36   19   43 1
  37   22   26 1
  38   22   44 1
  39   22   45 1
  40   23   24 1
  41   23   27 1
  42   24   25 2
  43   24   46 1
  44   25   26 1
  45   26   27 2
  46   27   28 1
  47   28   29 ar
  48   28   33 ar
  49   29   30 ar
  50   29   47 1
  51   30   31 ar
  52   30   48 1
  53   31   32 ar
  54   31   49 1
  55   32   33 ar
  56   32   50 1
  57   33   51 1

#	End of record

