#	Name: ASD03090368
#	Creating user name:	WinNT
#	Creation time:	15. 06. 2019 20:28

#	Modifying user name:	WinNT
#	Modification time:	15. 06. 2019 20:28

#	Program:	/corina/corina34_cracker 3.40 0067  02.08.2006

@<TRIPOS>MOLECULE
ASD03090368
  42   44    0    0    0
SMALL
NO_CHARGES


@<TRIPOS>ATOM
   1 C1            -0.0179     1.4719     0.0101 C.2     
   2 C2             0.0021    -0.0041     0.0020 C.ar    
   3 C3             1.2203    -0.6995    -0.0133 C.ar    
   4 C4             1.1875    -2.0786    -0.0205 C.ar    
   5 C5            -0.0424    -2.7299    -0.0123 C.ar    
   6 N6            -1.1755    -2.0450     0.0022 N.ar    
   7 C7            -1.1903    -0.7285     0.0153 C.ar    
   8 O8             1.0266     2.0941     0.0035 O.2     
   9 N9            -1.1942     2.1299     0.0193 N.am    
  10 O10           -0.0809    -4.0843    -0.0197 O.3     
  11 C11           -1.3719    -4.6967    -0.0107 C.3     
  12 C12           -1.2146    -6.2186    -0.0209 C.3     
  13 F13           -0.4996    -6.6211     1.1121 F       
  14 F14           -2.4786    -6.8181    -0.0121 F       
  15 F15           -0.5218    -6.6080    -1.1723 F       
  16 C16           -1.2140     3.5947     0.0273 C.3     
  17 N17           -6.5411     5.3988     0.3357 N.pl3   
  18 C18           -6.6944     5.4453     1.6946 C.2     
  19 C19           -5.5590     5.0575     2.2967 C.2     
  20 C20           -4.6003     4.7363     1.2367 C.ar    
  21 C21           -3.2778     4.2884     1.2273 C.ar    
  22 C22           -2.6415     4.0777     0.0367 C.ar    
  23 C23           -3.2993     4.3054    -1.1644 C.ar    
  24 C24           -4.6038     4.7478    -1.1782 C.ar    
  25 C25           -5.2711     4.9690     0.0224 C.ar    
  26 C26           -7.5761     5.7482    -0.6405 C.3     
  27 H27            2.1607    -0.1683    -0.0198 H       
  28 H28            2.1060    -2.6466    -0.0327 H       
  29 H29           -2.1344    -0.2043     0.0317 H       
  30 H30           -2.0275     1.6335     0.0205 H       
  31 H31           -1.9117    -4.3933     0.8863 H       
  32 H32           -1.9290    -4.3831    -0.8935 H       
  33 H33           -0.7010     3.9602     0.9169 H       
  34 H34           -0.7094     3.9698    -0.8630 H       
  35 H35           -7.5953     5.7493     2.2068 H       
  36 H36           -5.3854     4.9942     3.3608 H       
  37 H37           -2.7594     4.1100     2.1578 H       
  38 H38           -2.7830     4.1342    -2.0975 H       
  39 H39           -5.1068     4.9223    -2.1178 H       
  40 H40           -7.5066     6.8094    -0.8795 H       
  41 H41           -7.4328     5.1613    -1.5477 H       
  42 H42           -8.5588     5.5339    -0.2205 H       
@<TRIPOS>BOND
   1    1    2 1
   2    1    8 2
   3    1    9 am
   4    2    3 ar
   5    2    7 ar
   6    3    4 ar
   7    3   27 1
   8    4    5 ar
   9    4   28 1
  10    5    6 ar
  11    5   10 1
  12    6    7 ar
  13    7   29 1
  14    9   16 1
  15    9   30 1
  16   10   11 1
  17   11   12 1
  18   11   31 1
  19   11   32 1
  20   12   13 1
  21   12   14 1
  22   12   15 1
  23   16   22 1
  24   16   33 1
  25   16   34 1
  26   17   18 1
  27   17   25 1
  28   17   26 1
  29   18   19 2
  30   18   35 1
  31   19   20 1
  32   19   36 1
  33   20   21 ar
  34   20   25 ar
  35   21   22 ar
  36   21   37 1
  37   22   23 ar
  38   23   24 ar
  39   23   38 1
  40   24   25 ar
  41   24   39 1
  42   26   40 1
  43   26   41 1
  44   26   42 1

#	End of record

