#	Name: ASD06170109
#	Creating user name:	WinNT
#	Creation time:	15. 06. 2019 21:05

#	Modifying user name:	WinNT
#	Modification time:	15. 06. 2019 21:05

#	Program:	/corina/corina34_cracker 3.40 0067  02.08.2006

@<TRIPOS>MOLECULE
ASD06170109
  64   68    0    0    0
SMALL
NO_CHARGES


@<TRIPOS>ATOM
   1 N1            -0.0949     1.4265    -0.3222 N.pl3   
   2 N2            -0.0446     0.0656    -0.0061 N.am    
   3 C3             1.2372    -0.2686     0.2504 C.2     
   4 C4             2.0309     0.9592     0.0835 C.2     
   5 C5             1.1420     1.9562    -0.2681 C.2     
   6 C6             3.4818     1.0975     0.2576 C.2     
   7 O7             4.0147     2.1782     0.0876 O.2     
   8 N8             4.2238     0.0275     0.6056 N.am    
   9 C9            -1.1394    -0.8036     0.0374 C.ar    
  10 C10           -2.0901    -0.7767    -0.9748 C.ar    
  11 C11           -3.1698    -1.6367    -0.9291 C.ar    
  12 C12           -3.3052    -2.5236     0.1232 C.ar    
  13 C13           -2.3604    -2.5529     1.1326 C.ar    
  14 C14           -1.2754    -1.6996     1.0899 C.ar    
  15 O15            1.6547    -1.3690     0.5595 O.2     
  16 C16            1.4968     3.3943    -0.5455 C.3     
  17 C17           -1.3120     2.1654    -0.6673 C.3     
  18 C18           -1.9290     2.7536     0.6033 C.3     
  19 O19           -1.0408     3.7260     1.1580 O.3     
  20 C20            5.6213     0.1156     0.6081 C.ar    
  21 C21            6.2397     1.3401     0.8254 C.ar    
  22 C22            7.6193     1.4258     0.8282 C.ar    
  23 C23            8.3862     0.2868     0.6136 C.ar    
  24 C24            7.7678    -0.9350     0.3969 C.ar    
  25 C25            6.3890    -1.0222     0.3993 C.ar    
  26 O26            9.7436     0.3708     0.6159 O.3     
  27 N27           11.6242     0.8814     4.2507 N.ar    
  28 C28           10.3137     0.8879     4.1788 C.ar    
  29 C29            9.6456     0.7193     2.9729 C.ar    
  30 C30           10.3689     0.5383     1.8068 C.ar    
  31 C31           11.7795     0.5330     1.8960 C.ar    
  32 C32           12.5795     0.3555     0.7578 C.ar    
  33 C33           13.9353     0.3557     0.8761 C.ar    
  34 C34           14.5444     0.5311     2.1220 C.ar    
  35 C35           13.7866     0.7072     3.2577 C.ar    
  36 C36           12.3858     0.7115     3.1634 C.ar    
  37 O37           15.8996     0.5273     2.2132 O.3     
  38 C38           16.6310     0.3397     0.9999 C.3     
  39 F39            8.2219     2.6165     1.0389 F       
  40 H40            3.7897    -0.8035     0.8543 H       
  41 H41           -1.9853    -0.0838    -1.7965 H       
  42 H42           -3.9093    -1.6162    -1.7159 H       
  43 H43           -4.1508    -3.1945     0.1569 H       
  44 H44           -2.4691    -3.2468     1.9531 H       
  45 H45           -0.5357    -1.7258     1.8765 H       
  46 H46            1.4422     3.9670     0.3803 H       
  47 H47            2.5088     3.4480    -0.9468 H       
  48 H48            0.7960     3.8081    -1.2706 H       
  49 H49           -1.0641     2.9716    -1.3577 H       
  50 H50           -2.0258     1.4899    -1.1387 H       
  51 H51           -2.8800     3.2272     0.3597 H       
  52 H52           -2.0950     1.9573     1.3289 H       
  53 H53           -1.3684     4.1413     1.9675 H       
  54 H54            5.6430     2.2248     0.9916 H       
  55 H55            8.3642    -1.8198     0.2303 H       
  56 H56            5.9082    -1.9751     0.2344 H       
  57 H57            9.7389     1.0283     5.0823 H       
  58 H58            8.5660     0.7286     2.9452 H       
  59 H59           12.1208     0.2187    -0.2103 H       
  60 H60           14.5478     0.2184    -0.0028 H       
  61 H61           14.2669     0.8411     4.2157 H       
  62 H62           17.6997     0.3576     1.2134 H       
  63 H63           16.3643    -0.6212     0.5598 H       
  64 H64           16.3867     1.1397     0.3010 H       
@<TRIPOS>BOND
   1    1    2 1
   2    1    5 1
   3    1   17 1
   4    2    3 am
   5    2    9 1
   6    3    4 1
   7    3   15 2
   8    4    5 2
   9    4    6 1
  10    5   16 1
  11    6    7 2
  12    6    8 am
  13    8   20 1
  14    8   40 1
  15    9   10 ar
  16    9   14 ar
  17   10   11 ar
  18   10   41 1
  19   11   12 ar
  20   11   42 1
  21   12   13 ar
  22   12   43 1
  23   13   14 ar
  24   13   44 1
  25   14   45 1
  26   16   46 1
  27   16   47 1
  28   16   48 1
  29   17   18 1
  30   17   49 1
  31   17   50 1
  32   18   19 1
  33   18   51 1
  34   18   52 1
  35   19   53 1
  36   20   21 ar
  37   20   25 ar
  38   21   22 ar
  39   21   54 1
  40   22   23 ar
  41   22   39 1
  42   23   24 ar
  43   23   26 1
  44   24   25 ar
  45   24   55 1
  46   25   56 1
  47   26   30 1
  48   27   28 ar
  49   27   36 ar
  50   28   29 ar
  51   28   57 1
  52   29   30 ar
  53   29   58 1
  54   30   31 ar
  55   31   32 ar
  56   31   36 ar
  57   32   33 ar
  58   32   59 1
  59   33   34 ar
  60   33   60 1
  61   34   35 ar
  62   34   37 1
  63   35   36 ar
  64   35   61 1
  65   37   38 1
  66   38   62 1
  67   38   63 1
  68   38   64 1

#	End of record

