#	Name: ASD01884672
#	Creating user name:	WinNT
#	Creation time:	15. 06. 2019 19:48

#	Modifying user name:	WinNT
#	Modification time:	15. 06. 2019 19:48

#	Program:	/corina/corina34_cracker 3.40 0067  02.08.2006

@<TRIPOS>MOLECULE
ASD01884672
  53   55    0    0    0
SMALL
NO_CHARGES


@<TRIPOS>ATOM
   1 C1            -0.0164     1.3576     0.0095 C.2     
   2 C2             0.0021    -0.0041     0.0020 C.2     
   3 C3             1.2440    -0.6751    -0.0134 C.2     
   4 C4             2.4024     0.0465    -0.0206 C.2     
   5 N5             2.3700     1.4024    -0.0126 N.am    
   6 C6             1.1986     2.0652     0.0017 C.2     
   7 O7             1.1911     3.2857     0.0083 O.2     
   8 C8             1.2897    -2.1584    -0.0214 C.ar    
   9 C9             3.6266     2.1554    -0.0196 C.3     
  10 C10            4.0447     2.4218    -1.4427 C.ar    
  11 C11            3.4609     3.4564    -2.1536 C.ar    
  12 C12            3.8459     3.7007    -3.4610 C.ar    
  13 C13            4.8133     2.9110    -4.0551 C.ar    
  14 C14            5.3958     1.8772    -3.3430 C.ar    
  15 C15            5.0152     1.6367    -2.0363 C.ar    
  16 F16            2.5156     4.2269    -1.5722 F       
  17 Cl17           5.2964     3.2160    -5.6944 Cl      
  18 C18            0.8124    -2.8774     1.0728 C.ar    
  19 C19            1.8048    -2.8351    -1.1254 C.ar    
  20 C20            1.8460    -4.2138    -1.1298 C.ar    
  21 C21            1.3747    -4.9272    -0.0363 C.ar    
  22 C22            0.8562    -4.2560     1.0626 C.ar    
  23 O23            1.4158    -6.2856    -0.0439 O.3     
  24 C24            0.9144    -6.9563     1.1140 C.3     
  25 C25            1.0423    -8.4688     0.9227 C.3     
  26 C26            0.5054    -9.1870     2.1624 C.3     
  27 N27            0.6279   -10.6353     1.9792 N.am    
  28 S28            0.4791   -11.6499     3.2795 S.o2    
  29 O29            0.6773   -12.9477     2.7358 O.2     
  30 O30            1.3743   -11.1156     4.2451 O.2     
  31 C31           -1.2396   -11.4424     3.8212 C.3     
  32 H32           -0.9563     1.8895     0.0169 H       
  33 H33           -0.9217    -0.5635     0.0082 H       
  34 H34            3.3528    -0.4664    -0.0325 H       
  35 H35            3.4854     3.1026     0.5010 H       
  36 H36            4.4003     1.5759     0.4840 H       
  37 H37            3.3908     4.5073    -4.0165 H       
  38 H38            6.1513     1.2606    -3.8073 H       
  39 H39            5.4705     0.8297    -1.4815 H       
  40 H40            0.4089    -2.3558     1.9281 H       
  41 H41            2.1710    -2.2806    -1.9768 H       
  42 H42            2.2451    -4.7388    -1.9851 H       
  43 H43            0.4906    -4.8137     1.9121 H       
  44 H44            1.4892    -6.6507     1.9883 H       
  45 H45           -0.1340    -6.6958     1.2593 H       
  46 H46            0.4675    -8.7744     0.0484 H       
  47 H47            2.0907    -8.7293     0.7774 H       
  48 H48            1.0803    -8.8814     3.0367 H       
  49 H49           -0.5430    -8.9265     2.3077 H       
  50 H50            0.7961   -10.9999     1.0962 H       
  51 H51           -1.9124   -11.7196     3.0096 H       
  52 H52           -1.4283   -12.0813     4.6839 H       
  53 H53           -1.4109   -10.4015     4.0956 H       
@<TRIPOS>BOND
   1    1    2 2
   2    1    6 1
   3    1   32 1
   4    2    3 1
   5    2   33 1
   6    3    4 2
   7    3    8 1
   8    4    5 1
   9    4   34 1
  10    5    6 am
  11    5    9 1
  12    6    7 2
  13    8   18 ar
  14    8   19 ar
  15    9   10 1
  16    9   35 1
  17    9   36 1
  18   10   11 ar
  19   10   15 ar
  20   11   12 ar
  21   11   16 1
  22   12   13 ar
  23   12   37 1
  24   13   14 ar
  25   13   17 1
  26   14   15 ar
  27   14   38 1
  28   15   39 1
  29   18   22 ar
  30   18   40 1
  31   19   20 ar
  32   19   41 1
  33   20   21 ar
  34   20   42 1
  35   21   22 ar
  36   21   23 1
  37   22   43 1
  38   23   24 1
  39   24   25 1
  40   24   44 1
  41   24   45 1
  42   25   26 1
  43   25   46 1
  44   25   47 1
  45   26   27 1
  46   26   48 1
  47   26   49 1
  48   27   28 am
  49   27   50 1
  50   28   29 2
  51   28   30 2
  52   28   31 1
  53   31   51 1
  54   31   52 1
  55   31   53 1

#	End of record

