#	Name: ASD01870287
#	Creating user name:	WinNT
#	Creation time:	15. 06. 2019 19:38

#	Modifying user name:	WinNT
#	Modification time:	15. 06. 2019 19:38

#	Program:	/corina/corina34_cracker 3.40 0067  02.08.2006

@<TRIPOS>MOLECULE
ASD01870287
  34   36    0    0    0
SMALL
NO_CHARGES


@<TRIPOS>ATOM
   1 C1             0.2072     1.5130     1.6710 C.ar    
   2 N2             0.2389     0.2083     1.8676 N.ar    
   3 C3             1.3499    -0.4921     1.7382 C.ar    
   4 C4             2.5354     0.1192     1.3883 C.ar    
   5 C5             2.5477     1.5008     1.1702 C.ar    
   6 C6             1.3474     2.2036     1.3184 C.ar    
   7 C7             3.7982     2.2009     0.7930 C.2     
   8 N8             4.9501     1.5619     0.6399 N.2     
   9 C9             3.8426     3.5287     0.5765 C.2     
  10 S10            5.4973     3.9625     0.1534 S.3     
  11 C11            5.9799     2.2760     0.3079 C.2     
  12 N12            7.2630     1.7868     0.1035 N.am    
  13 C13            7.5352     0.3560     0.2615 C.3     
  14 C14            8.2581     2.6282    -0.2402 C.2     
  15 C15            9.6430     2.1257    -0.3586 C.ar    
  16 O16            8.0167     3.8005    -0.4529 O.2     
  17 C17            9.8815     0.8309    -0.8233 C.ar    
  18 C18           10.7179     2.9454    -0.0117 C.ar    
  19 C19           12.0102     2.4690    -0.1254 C.ar    
  20 C20           12.2383     1.1811    -0.5825 C.ar    
  21 C21           11.1759     0.3669    -0.9324 C.ar    
  22 F22           13.0527     3.2605     0.2092 F       
  23 H23           -0.7253     2.0461     1.7835 H       
  24 H24            1.3304    -1.5583     1.9090 H       
  25 H25            3.4409    -0.4601     1.2845 H       
  26 H26            1.3141     3.2712     1.1587 H       
  27 H27            3.0081     4.2103     0.6491 H       
  28 H28            7.4188    -0.1443    -0.6999 H       
  29 H29            8.5546     0.2178     0.6219 H       
  30 H30            6.8349    -0.0700     0.9799 H       
  31 H31            9.0537     0.1934    -1.0967 H       
  32 H32           10.5402     3.9495     0.3442 H       
  33 H33           13.2497     0.8126    -0.6698 H       
  34 H34           11.3605    -0.6348    -1.2915 H       
@<TRIPOS>BOND
   1    1    2 ar
   2    1    6 ar
   3    1   23 1
   4    2    3 ar
   5    3    4 ar
   6    3   24 1
   7    4    5 ar
   8    4   25 1
   9    5    6 ar
  10    5    7 1
  11    6   26 1
  12    7    9 2
  13    7    8 1
  14    8   11 2
  15    9   10 1
  16    9   27 1
  17   10   11 1
  18   11   12 1
  19   12   13 1
  20   12   14 am
  21   13   28 1
  22   13   29 1
  23   13   30 1
  24   14   15 1
  25   14   16 2
  26   15   18 ar
  27   15   17 ar
  28   17   21 ar
  29   17   31 1
  30   18   19 ar
  31   18   32 1
  32   19   20 ar
  33   19   22 1
  34   20   21 ar
  35   20   33 1
  36   21   34 1

#	End of record

