#	Name: ASD01916158
#	Creating user name:	WinNT
#	Creation time:	15. 06. 2019 20:06

#	Modifying user name:	WinNT
#	Modification time:	15. 06. 2019 20:06

#	Program:	/corina/corina34_cracker 3.40 0067  02.08.2006

@<TRIPOS>MOLECULE
ASD01916158
  44   47    0    0    0
SMALL
NO_CHARGES


@<TRIPOS>ATOM
   1 C1             0.0772     1.3894    -0.0527 C.ar    
   2 C2             0.0824     0.0079    -0.0532 C.ar    
   3 C3             1.2867    -0.6804    -0.0513 C.ar    
   4 C4             2.4841     0.0196    -0.0490 C.ar    
   5 C5             2.4760     1.4010    -0.0485 C.ar    
   6 C6             1.2732     2.0868    -0.0504 C.ar    
   7 O7             1.2933    -2.0399    -0.0514 O.3     
   8 C8             2.5696    -2.6824    -0.0494 C.3     
   9 C9             2.3794    -4.1774    -0.0497 C.2     
  10 C10            1.1499    -4.8484    -0.0516 C.2     
  11 N11            3.3357    -5.0729    -0.0539 N.2     
  12 N12            2.7463    -6.3400    -0.0571 N.pl3   
  13 C13            1.4038    -6.1706    -0.0506 C.2     
  14 C14            3.4280    -7.6372    -0.0749 C.3     
  15 C15            2.4539    -8.7263     0.3874 C.3     
  16 N16            1.1647    -8.5454    -0.2971 N.am    
  17 C17            0.4087    -7.3067    -0.0378 C.3     
  18 C18            0.6888    -9.4829    -1.1403 C.2     
  19 C19           -0.6662    -9.3412    -1.7148 C.ar    
  20 O20            1.3735   -10.4450    -1.4285 O.2     
  21 C21           -0.9244    -9.7750    -3.0158 C.ar    
  22 C22           -3.2045    -9.0773    -2.7939 C.ar    
  23 C23           -2.9575    -8.6493    -1.4990 C.ar    
  24 C24           -1.6935    -8.7783    -0.9560 C.ar    
  25 C25           -2.1908    -9.6408    -3.5471 C.ar    
  26 F26            1.2667     3.4378    -0.0504 F       
  27 F27           -3.9524    -8.0996    -0.7688 F       
  28 H28           -0.8603     1.9256    -0.0587 H       
  29 H29           -0.8507    -0.5359    -0.0547 H       
  30 H30            3.4225    -0.5152    -0.0472 H       
  31 H31            3.4082     1.9463    -0.0463 H       
  32 H32            3.1266    -2.3868    -0.9385 H       
  33 H33            3.1238    -2.3869     0.8415 H       
  34 H34            0.1731    -4.3876    -0.0536 H       
  35 H35            3.7659    -7.8570    -1.0876 H       
  36 H36            4.2857    -7.6068     0.5971 H       
  37 H37            2.8616    -9.7071     0.1427 H       
  38 H38            2.3078    -8.6505     1.4649 H       
  39 H39           -0.0745    -7.3633     0.9377 H       
  40 H40           -0.3395    -7.1577    -0.8163 H       
  41 H41           -0.1341   -10.2147    -3.6061 H       
  42 H42           -4.1940    -8.9750    -3.2145 H       
  43 H43           -1.5010    -8.4447     0.0530 H       
  44 H44           -2.3908    -9.9765    -4.5540 H       
@<TRIPOS>BOND
   1    1    2 ar
   2    1    6 ar
   3    1   28 1
   4    2    3 ar
   5    2   29 1
   6    3    4 ar
   7    3    7 1
   8    4    5 ar
   9    4   30 1
  10    5    6 ar
  11    5   31 1
  12    6   26 1
  13    7    8 1
  14    8    9 1
  15    8   32 1
  16    8   33 1
  17    9   10 1
  18    9   11 2
  19   10   13 2
  20   10   34 1
  21   11   12 1
  22   12   13 1
  23   12   14 1
  24   13   17 1
  25   14   15 1
  26   14   35 1
  27   14   36 1
  28   15   16 1
  29   15   37 1
  30   15   38 1
  31   16   17 1
  32   16   18 am
  33   17   39 1
  34   17   40 1
  35   18   19 1
  36   18   20 2
  37   19   21 ar
  38   19   24 ar
  39   21   25 ar
  40   21   41 1
  41   22   23 ar
  42   22   25 ar
  43   22   42 1
  44   23   24 ar
  45   23   27 1
  46   24   43 1
  47   25   44 1

#	End of record

