#	Name: ASD02030037
#	Creating user name:	WinNT
#	Creation time:	15. 06. 2019 20:14

#	Modifying user name:	WinNT
#	Modification time:	15. 06. 2019 20:14

#	Program:	/corina/corina34_cracker 3.40 0067  02.08.2006

@<TRIPOS>MOLECULE
ASD02030037
  62   66    0    0    0
SMALL
NO_CHARGES


@<TRIPOS>ATOM
   1 C1            -0.0167     1.3781     0.0096 C.ar    
   2 C2             0.0021    -0.0041     0.0020 C.ar    
   3 C3             1.2084    -0.6789    -0.0132 C.ar    
   4 C4             2.3960     0.0285    -0.0212 C.ar    
   5 C5             2.3773     1.4107    -0.0145 C.ar    
   6 C6             1.1709     2.0855     0.0021 C.ar    
   7 C7             3.7112    -0.7071    -0.0368 C.3     
   8 C8             4.1427    -0.9498    -1.4845 C.3     
   9 C9             5.4120    -1.8038    -1.5019 C.3     
  10 C10            4.4171     0.3716    -2.1550 C.2     
  11 O11            4.2814     1.4017    -1.5383 O.2     
  12 O12            4.8122     0.4042    -3.4374 O.3     
  13 C13            5.7679    -2.1457    -2.9259 C.2     
  14 C14            6.9853    -2.9847    -3.2176 C.3     
  15 O15            5.0776    -1.7473    -3.8331 O.2     
  16 O16            7.1091    -3.1697    -4.6292 O.3     
  17 C17            8.1618    -3.9083    -5.0639 C.ar    
  18 C18            8.3338    -4.1219    -6.4219 C.ar    
  19 C19            9.0583    -4.4370    -4.1410 C.ar    
  20 C20           10.1363    -5.1865    -4.5742 C.ar    
  21 C21           10.3170    -5.4035    -5.9456 C.ar    
  22 C22            9.4080    -4.8736    -6.8788 C.ar    
  23 C23           11.4621    -6.1766    -6.4561 C.2     
  24 C24           11.6998    -6.0887    -7.9106 C.2     
  25 C25           10.7262    -5.5455    -8.6856 C.2     
  26 O26            9.5692    -5.1020    -8.1961 O.3     
  27 O27           11.0121    -5.7070    -3.6778 O.3     
  28 O28           12.1695    -6.8468    -5.7234 O.2     
  29 C29           12.9658    -6.5793    -8.5079 C.ar    
  30 C30           13.8421    -5.6850    -9.1187 C.ar    
  31 C31           13.2842    -7.9351    -8.4542 C.ar    
  32 C32           14.4631    -8.3890    -9.0088 C.ar    
  33 C33           15.3357    -7.4997    -9.6208 C.ar    
  34 C34           15.0242    -6.1453    -9.6748 C.ar    
  35 O35           16.4974    -7.9680   -10.1546 O.3     
  36 C36           17.1693    -7.1127   -11.0856 C.3     
  37 C37           17.2098    -5.6969   -10.4950 C.3     
  38 O38           15.8651    -5.2607   -10.2777 O.3     
  39 H39           -0.9592     1.9054     0.0170 H       
  40 H40           -0.9258    -0.5567     0.0083 H       
  41 H41            1.2231    -1.7588    -0.0184 H       
  42 H42            3.3051     1.9634    -0.0201 H       
  43 H43            1.1563     3.1654     0.0077 H       
  44 H44            4.4676    -0.1100     0.4726 H       
  45 H45            3.5986    -1.6635     0.4740 H       
  46 H46            3.3474    -1.4699    -2.0183 H       
  47 H47            6.2309    -1.2470    -1.0464 H       
  48 H48            5.2400    -2.7219    -0.9400 H       
  49 H49            4.9762     1.2751    -3.8243 H       
  50 H50            7.8738    -2.4801    -2.8380 H       
  51 H51            6.8829    -3.9549    -2.7316 H       
  52 H52            7.6307    -3.7030    -7.1266 H       
  53 H53            8.9123    -4.2617    -3.0854 H       
  54 H54           10.8995    -5.4649    -9.7485 H       
  55 H55           10.7767    -6.5916    -3.3661 H       
  56 H56           13.5997    -4.6334    -9.1588 H       
  57 H57           12.6083    -8.6302    -7.9784 H       
  58 H58           14.7081    -9.4400    -8.9663 H       
  59 H59           18.1853    -7.4725   -11.2480 H       
  60 H60           16.6273    -7.1012   -12.0312 H       
  61 H61           17.7462    -5.7095    -9.5462 H       
  62 H62           17.7087    -5.0224   -11.1910 H       
@<TRIPOS>BOND
   1    1    2 ar
   2    1    6 ar
   3    1   39 1
   4    2    3 ar
   5    2   40 1
   6    3    4 ar
   7    3   41 1
   8    4    5 ar
   9    4    7 1
  10    5    6 ar
  11    5   42 1
  12    6   43 1
  13    7    8 1
  14    7   44 1
  15    7   45 1
  16    8    9 1
  17    8   10 1
  18    8   46 1
  19    9   13 1
  20    9   47 1
  21    9   48 1
  22   10   11 2
  23   10   12 1
  24   12   49 1
  25   13   14 1
  26   13   15 2
  27   14   16 1
  28   14   50 1
  29   14   51 1
  30   16   17 1
  31   17   18 ar
  32   17   19 ar
  33   18   22 ar
  34   18   52 1
  35   19   20 ar
  36   19   53 1
  37   20   21 ar
  38   20   27 1
  39   21   22 ar
  40   21   23 1
  41   22   26 1
  42   23   24 1
  43   23   28 2
  44   24   25 2
  45   24   29 1
  46   25   26 1
  47   25   54 1
  48   27   55 1
  49   29   30 ar
  50   29   31 ar
  51   30   34 ar
  52   30   56 1
  53   31   32 ar
  54   31   57 1
  55   32   33 ar
  56   32   58 1
  57   33   34 ar
  58   33   35 1
  59   34   38 1
  60   35   36 1
  61   36   37 1
  62   36   59 1
  63   36   60 1
  64   37   38 1
  65   37   61 1
  66   37   62 1

#	End of record

