#	Name: ASD07300373
#	Creating user name:	WinNT
#	Creation time:	15. 06. 2019 21:09

#	Modifying user name:	WinNT
#	Modification time:	15. 06. 2019 21:09

#	Program:	/corina/corina34_cracker 3.40 0067  02.08.2006

@<TRIPOS>MOLECULE
ASD07300373
  48   52    0    0    0
SMALL
NO_CHARGES


@<TRIPOS>ATOM
   1 C1            -0.8593     0.9895    -0.1288 C.ar    
   2 C2            -1.0223    -0.3812    -0.3519 C.ar    
   3 C3             0.0628    -1.2300    -0.1925 C.ar    
   4 C4             1.2787    -0.6771     0.1860 C.ar    
   5 C5             1.3676     0.6882     0.3898 C.ar    
   6 N6             0.3186     1.4719     0.2308 N.ar    
   7 C7            -2.9735     0.6162    -0.6995 C.2     
   8 N8            -2.0983     1.5791    -0.3554 N.am    
   9 N9            -2.3521    -0.5785    -0.7117 N.am    
  10 O10           -4.1472     0.7981    -0.9638 O.2     
  11 C11           -2.3874     2.9472    -0.2436 C.ar    
  12 C12           -3.6718     3.4086    -0.4986 C.ar    
  13 C13           -3.9560     4.7553    -0.3879 C.ar    
  14 C14           -2.9583     5.6473    -0.0221 C.ar    
  15 C15           -1.6746     5.1866     0.2328 C.ar    
  16 C16           -1.3907     3.8395     0.1276 C.ar    
  17 O17           -3.2385     6.9733     0.0863 O.3     
  18 C18           -3.9149     7.3921     1.1803 C.2     
  19 N19           -4.2421     6.6358     2.1958 N.2     
  20 C20           -4.9131     7.3748     3.1178 C.ar    
  21 C21           -4.9964     8.6842     2.6154 C.ar    
  22 N22           -4.3517     8.6673     1.3904 N.pl3   
  23 C23           -5.4781     7.0779     4.3602 C.ar    
  24 C24           -6.1096     8.0685     5.0786 C.ar    
  25 C25           -6.1894     9.3593     4.5778 C.ar    
  26 C26           -5.6354     9.6693     3.3528 C.ar    
  27 C27           -4.1745     9.8063     0.4862 C.3     
  28 C28           -2.9715    -1.8654    -1.0381 C.3     
  29 C29           -3.5353    -2.4978     0.2359 C.3     
  30 Cl30           2.6728    -1.6887     0.4019 Cl      
  31 H31           -0.0355    -2.2927    -0.3580 H       
  32 H32            2.3126     1.1201     0.6843 H       
  33 H33           -4.4484     2.7144    -0.7837 H       
  34 H34           -4.9550     5.1143    -0.5866 H       
  35 H35           -0.8983     5.8814     0.5176 H       
  36 H36           -0.3924     3.4805     0.3300 H       
  37 H37           -5.4203     6.0746     4.7559 H       
  38 H38           -6.5464     7.8384     6.0392 H       
  39 H39           -6.6880    10.1271     5.1508 H       
  40 H40           -5.7006    10.6765     2.9686 H       
  41 H41           -5.0199     9.8606    -0.1997 H       
  42 H42           -4.1187    10.7265     1.0676 H       
  43 H43           -3.2531     9.6791    -0.0822 H       
  44 H44           -3.7786    -1.7090    -1.7539 H       
  45 H45           -2.2238    -2.5287    -1.4728 H       
  46 H46           -2.7283    -2.6542     0.9517 H       
  47 H47           -4.2831    -1.8345     0.6706 H       
  48 H48           -3.9962    -3.4553    -0.0070 H       
@<TRIPOS>BOND
   1    1    2 ar
   2    1    6 ar
   3    1    8 1
   4    2    3 ar
   5    2    9 1
   6    3    4 ar
   7    3   31 1
   8    4    5 ar
   9    4   30 1
  10    5    6 ar
  11    5   32 1
  12    7    8 am
  13    7    9 am
  14    7   10 2
  15    8   11 1
  16    9   28 1
  17   11   12 ar
  18   11   16 ar
  19   12   13 ar
  20   12   33 1
  21   13   14 ar
  22   13   34 1
  23   14   15 ar
  24   14   17 1
  25   15   16 ar
  26   15   35 1
  27   16   36 1
  28   17   18 1
  29   18   19 2
  30   18   22 1
  31   19   20 1
  32   20   21 ar
  33   20   23 ar
  34   21   22 1
  35   21   26 ar
  36   22   27 1
  37   23   24 ar
  38   23   37 1
  39   24   25 ar
  40   24   38 1
  41   25   26 ar
  42   25   39 1
  43   26   40 1
  44   27   41 1
  45   27   42 1
  46   27   43 1
  47   28   29 1
  48   28   44 1
  49   28   45 1
  50   29   46 1
  51   29   47 1
  52   29   48 1

#	End of record

