#	Name: ASD00150002
#	Creating user name:	WinNT
#	Creation time:	15. 06. 2019 18:31

#	Modifying user name:	WinNT
#	Modification time:	15. 06. 2019 18:31

#	Program:	/corina/corina34_cracker 3.40 0067  02.08.2006

@<TRIPOS>MOLECULE
ASD00150002
  44   45    0    0    0
SMALL
NO_CHARGES


@<TRIPOS>ATOM
   1 P1            -0.0180     1.4758     0.0102 P.3     
   2 O2             0.0021    -0.0041     0.0020 O.2     
   3 O3             1.4924     2.0330    -0.0013 O.3     
   4 O4            -0.7967     2.0091    -1.2942 O.3     
   5 O5            -0.7716     1.9950     1.3348 O.3     
   6 P6            -0.8355     1.5534    -2.8378 P.3     
   7 O7            -0.9571     0.0804    -2.9145 O.2     
   8 O8            -2.0988     2.2349    -3.5670 O.3     
   9 O9             0.5214     2.0186    -3.5690 O.3     
  10 P10           -0.7058     1.5880     2.8911 P.3     
  11 O11           -0.5959     0.1170     3.0121 O.2     
  12 O12            0.5781     2.2799     3.5729 O.3     
  13 O13           -2.0434     2.0892     3.6339 O.3     
  14 C14           -2.3338     1.7889     5.0005 C.3     
  15 O15           -4.7523     1.7811     4.6601 O.3     
  16 C16           -3.6760     2.4140     5.3859 C.3     
  17 C17           -3.9890     2.1408     6.8737 C.3     
  18 C18           -5.5160     1.9060     6.8992 C.3     
  19 C19           -5.9448     2.0651     5.4237 C.3     
  20 O20           -6.1597     2.8858     7.7162 O.3     
  21 O21           -3.6431     3.2728     7.6743 O.3     
  22 C22           -8.2113     1.5539     4.7090 C.2     
  23 N23           -9.2005     0.6952     4.3996 N.am    
  24 C24           -8.9929    -0.6352     4.4715 C.2     
  25 C25           -7.7252    -1.1196     4.8748 C.2     
  26 C26           -6.7507    -0.2360     5.1790 C.2     
  27 N27           -7.0022     1.1063     5.0936 N.am    
  28 O28           -9.8877    -1.4128     4.1925 O.2     
  29 O29           -8.4116     2.7508     4.6351 O.2     
  30 H30            1.5557     2.9980     0.0033 H       
  31 H31           -2.1850     2.0039    -4.5021 H       
  32 H32            0.6667     2.9745    -3.5573 H       
  33 H33            0.5732     3.2460     3.5306 H       
  34 H34           -2.3853     0.7081     5.1320 H       
  35 H35           -1.5476     2.1953     5.6368 H       
  36 H36           -3.6660     3.4864     5.1910 H       
  37 H37           -3.4602     1.2522     7.2184 H       
  38 H38           -5.7420     0.9013     7.2564 H       
  39 H39           -6.2828     3.0840     5.2345 H       
  40 H40           -5.8813     2.8703     8.6421 H       
  41 H41           -3.8190     3.1558     8.6179 H       
  42 H42          -10.0664     1.0348     4.1241 H       
  43 H43           -7.5403    -2.1817     4.9386 H       
  44 H44           -5.7773    -0.5870     5.4886 H       
@<TRIPOS>BOND
   1    1    2 2
   2    1    3 1
   3    1    4 1
   4    1    5 1
   5    3   30 1
   6    4    6 1
   7    5   10 1
   8    6    7 2
   9    6    8 1
  10    6    9 1
  11    8   31 1
  12    9   32 1
  13   10   11 2
  14   10   12 1
  15   10   13 1
  16   12   33 1
  17   13   14 1
  18   14   16 1
  19   14   34 1
  20   14   35 1
  21   15   16 1
  22   15   19 1
  23   16   17 1
  24   16   36 1
  25   17   18 1
  26   17   21 1
  27   17   37 1
  28   18   19 1
  29   18   20 1
  30   18   38 1
  31   19   27 1
  32   19   39 1
  33   20   40 1
  34   21   41 1
  35   22   23 am
  36   22   27 am
  37   22   29 2
  38   23   24 am
  39   23   42 1
  40   24   25 1
  41   24   28 2
  42   25   26 2
  43   25   43 1
  44   26   27 1
  45   26   44 1

#	End of record

