#	Name: ASD01410811
#	Creating user name:	WinNT
#	Creation time:	15. 06. 2019 19:18

#	Modifying user name:	WinNT
#	Modification time:	15. 06. 2019 19:18

#	Program:	/corina/corina34_cracker 3.40 0067  02.08.2006

@<TRIPOS>MOLECULE
ASD01410811
  73   76    0    0    0
SMALL
NO_CHARGES


@<TRIPOS>ATOM
   1 C1            -0.2020     1.2173     1.8346 C.ar    
   2 C2            -0.9977    -0.8811     0.9749 C.ar    
   3 C3            -2.2607    -0.3344     0.7955 C.ar    
   4 C4            -2.4986     1.0019     1.1514 C.ar    
   5 C5            -1.4561     1.7756     1.6673 C.ar    
   6 O6             0.8118     1.9680     2.3420 O.3     
   7 C7             1.8515     2.2700     1.5245 C.ar    
   8 N8            -3.2924    -1.1136     0.2740 N.am    
   9 C9            -4.2776    -1.5548     1.0809 C.2     
  10 C10           -5.3220    -2.5010     0.5469 C.3     
  11 O11           -4.3237    -1.1904     2.2367 O.2     
  12 C12           -6.0538    -3.1648     1.7151 C.3     
  13 C13           -7.3854    -2.6843    -0.8499 C.3     
  14 C14           -8.1172    -3.3481     0.3183 C.3     
  15 C15           -7.1141    -4.1254     1.1730 C.3     
  16 C16           -9.1775    -4.3087    -0.2238 C.3     
  17 N17            1.8012     1.9291     0.2472 N.ar    
  18 C18            2.9562     2.9393     2.0353 C.ar    
  19 C19            4.0102     3.2419     1.1905 C.ar    
  20 C20            3.9210     2.8623    -0.1415 C.ar    
  21 C21            2.7898     2.2038    -0.5820 C.ar    
  22 C22           -6.3251    -1.7237    -0.3078 C.3     
  23 C23            0.0242    -0.1103     1.4912 C.ar    
  24 C24           -3.3056    -1.4528    -1.1512 C.3     
  25 C25           -3.1915    -0.1920    -1.9687 C.2     
  26 C26           -4.1968     0.1822    -2.7510 C.2     
  27 C27           -4.0809     1.4150    -3.5520 C.2     
  28 O28           -5.1959     2.0216    -4.0371 O.3     
  29 C29           -2.8756     1.9319    -3.7977 C.2     
  30 C30           -2.1256    -2.3741    -1.4671 C.3     
  31 C31           -1.6411     1.2567    -3.2613 C.3     
  32 C32           -1.9404     0.6418    -1.8907 C.3     
  33 C33           -5.0052     3.2119    -4.8044 C.3     
  34 C34            3.0065     3.3312     3.4895 C.3     
  35 F35            4.2130     3.9881     3.7541 F       
  36 F36            1.9371     4.1854     3.7795 F       
  37 F37            2.9159     2.1840     4.2851 F       
  38 C38           -3.8364     1.5916     0.9642 C.2     
  39 O39           -4.7128     0.9494     0.4202 O.2     
  40 O40           -4.0875     2.8431     1.3962 O.3     
  41 H41           -0.8118    -1.9094     0.7018 H       
  42 H42           -1.6293     2.8074     1.9353 H       
  43 H43           -4.8414    -3.2662    -0.0626 H       
  44 H44           -5.3392    -3.7185     2.3240 H       
  45 H45           -6.5344    -2.3996     2.3247 H       
  46 H46           -6.9048    -3.4495    -1.4594 H       
  47 H47           -8.1000    -2.1306    -1.4588 H       
  48 H48           -8.5979    -2.5829     0.9279 H       
  49 H49           -6.6335    -4.8906     0.5635 H       
  50 H50           -7.6355    -4.5983     2.0053 H       
  51 H51           -8.6969    -5.0739    -0.8333 H       
  52 H52           -9.6989    -4.7816     0.6085 H       
  53 H53           -9.8922    -3.7550    -0.8327 H       
  54 H54            4.8820     3.7618     1.5595 H       
  55 H55            4.7256     3.0834    -0.8271 H       
  56 H56            2.7156     1.9060    -1.6175 H       
  57 H57           -6.8057    -0.9585     0.3018 H       
  58 H58           -5.8037    -1.2508    -1.1400 H       
  59 H59            1.0050    -0.5410     1.6286 H       
  60 H60           -4.2386    -1.9608    -1.3951 H       
  61 H61           -5.0959    -0.4140    -2.8008 H       
  62 H62           -2.7853     2.8355    -4.3822 H       
  63 H63           -2.1598    -3.2455    -0.8133 H       
  64 H64           -2.1850    -2.6971    -2.5064 H       
  65 H65           -1.1914    -1.8359    -1.3067 H       
  66 H66           -1.3270     0.4746    -3.9524 H       
  67 H67           -0.8419     1.9910    -3.1603 H       
  68 H68           -2.0729     1.4379    -1.1581 H       
  69 H69           -1.1062     0.0088    -1.5882 H       
  70 H70           -4.3910     2.9875    -5.6765 H       
  71 H71           -5.9730     3.5933    -5.1301 H       
  72 H72           -4.5061     3.9629    -4.1921 H       
  73 H73           -4.9796     3.1869     1.2511 H       
@<TRIPOS>BOND
   1    1   23 ar
   2    1    6 1
   3    1    5 ar
   4    2    3 ar
   5    2   23 ar
   6    2   41 1
   7    3    4 ar
   8    3    8 1
   9    4    5 ar
  10    4   38 1
  11    5   42 1
  12    6    7 1
  13    7   18 ar
  14    7   17 ar
  15    8    9 am
  16    8   24 1
  17    9   11 2
  18    9   10 1
  19   10   12 1
  20   10   22 1
  21   10   43 1
  22   12   15 1
  23   12   44 1
  24   12   45 1
  25   13   14 1
  26   13   22 1
  27   13   46 1
  28   13   47 1
  29   14   15 1
  30   14   16 1
  31   14   48 1
  32   15   49 1
  33   15   50 1
  34   16   51 1
  35   16   52 1
  36   16   53 1
  37   17   21 ar
  38   18   19 ar
  39   18   34 1
  40   19   20 ar
  41   19   54 1
  42   20   21 ar
  43   20   55 1
  44   21   56 1
  45   22   57 1
  46   22   58 1
  47   23   59 1
  48   24   25 1
  49   24   30 1
  50   24   60 1
  51   25   26 2
  52   25   32 1
  53   26   27 1
  54   26   61 1
  55   27   28 1
  56   27   29 2
  57   28   33 1
  58   29   31 1
  59   29   62 1
  60   30   63 1
  61   30   64 1
  62   30   65 1
  63   31   32 1
  64   31   66 1
  65   31   67 1
  66   32   68 1
  67   32   69 1
  68   33   70 1
  69   33   71 1
  70   33   72 1
  71   34   35 1
  72   34   36 1
  73   34   37 1
  74   38   39 2
  75   38   40 1
  76   40   73 1

#	End of record

