#	Name: ASD03092944
#	Creating user name:	WinNT
#	Creation time:	15. 06. 2019 20:33

#	Modifying user name:	WinNT
#	Modification time:	15. 06. 2019 20:33

#	Program:	/corina/corina34_cracker 3.40 0067  02.08.2006

@<TRIPOS>MOLECULE
ASD03092944
  54   57    0    0    0
SMALL
NO_CHARGES


@<TRIPOS>ATOM
   1 F1            -0.0005    -0.0038     0.0217 F       
   2 C2            -0.0191     1.3470     0.0324 C.ar    
   3 C3            -1.2277     2.0225     0.0598 C.ar    
   4 C4            -1.2495     3.4049     0.0704 C.ar    
   5 C5            -0.0657     4.1162     0.0542 C.ar    
   6 C6             1.1483     3.4427     0.0272 C.ar    
   7 C7             1.1695     2.0553     0.0219 C.ar    
   8 N8             2.3511     4.1636     0.0103 N.pl3   
   9 C9             2.6656     5.1915    -0.8220 C.2     
  10 N10            3.8692     5.6056    -0.5347 N.2     
  11 C11            4.3631     4.8721     0.4743 C.2     
  12 C12            5.7238     5.0344     1.1014 C.3     
  13 C13            6.8039     4.8189     0.0387 C.3     
  14 C14            8.1857     4.9503     0.6869 C.3     
  15 N15            8.2646     6.2470     1.3732 N.am    
  16 C16            7.2233     6.5940     2.3499 C.3     
  17 C17            5.8523     6.4441     1.6831 C.3     
  18 C18            9.2734     7.1019     1.1121 C.2     
  19 O19           10.1793     6.7659     0.3741 O.2     
  20 N20            9.2779     8.3291     1.6692 N.am    
  21 C21           10.4274     9.2167     1.4766 C.3     
  22 C22           10.2699     9.9763     0.1578 C.3     
  23 C23           11.4703    10.9033    -0.0433 C.3     
  24 C24           11.5439    11.9010     1.1143 C.3     
  25 F25           12.6416    12.7486     0.9304 F       
  26 F26           10.3694    12.6603     1.1509 F       
  27 C27           11.7014    11.1414     2.4330 C.3     
  28 C28           10.5010    10.2144     2.6342 C.3     
  29 C29            3.4298     3.9688     0.8338 C.2     
  30 Cl30           3.5680     2.7842     2.0954 Cl      
  31 H31           -2.1548     1.4686     0.0725 H       
  32 H32           -2.1934     3.9292     0.0910 H       
  33 H33           -0.0842     5.1960     0.0622 H       
  34 H34            2.1124     1.5290     0.0054 H       
  35 H35            2.0263     5.5975    -1.5920 H       
  36 H36            5.8465     4.3003     1.8977 H       
  37 H37            6.6972     3.8232    -0.3917 H       
  38 H38            6.6972     5.5682    -0.7456 H       
  39 H39            8.3290     4.1458     1.4082 H       
  40 H40            8.9565     4.8963    -0.0818 H       
  41 H41            7.2881     5.9235     3.2069 H       
  42 H42            7.3591     7.6243     2.6785 H       
  43 H43            5.7545     7.1780     0.8833 H       
  44 H44            5.0683     6.6051     2.4231 H       
  45 H45            8.5201     8.6247     2.1976 H       
  46 H46           11.3425     8.6252     1.4481 H       
  47 H47           10.2175     9.2656    -0.6669 H       
  48 H48            9.3548    10.5679     0.1864 H       
  49 H49           12.3854    10.3118    -0.0718 H       
  50 H50           11.3581    11.4445    -0.9828 H       
  51 H51           12.6165    10.5498     2.4045 H       
  52 H52           11.7539    11.8522     3.2578 H       
  53 H53            9.5859    10.8060     2.6627 H       
  54 H54           10.6132     9.6733     3.5737 H       
@<TRIPOS>BOND
   1    1    2 1
   2    2    7 ar
   3    2    3 ar
   4    3    4 ar
   5    3   31 1
   6    4    5 ar
   7    4   32 1
   8    5    6 ar
   9    5   33 1
  10    6    7 ar
  11    6    8 1
  12    7   34 1
  13    8   29 1
  14    8    9 1
  15    9   10 2
  16    9   35 1
  17   10   11 1
  18   11   12 1
  19   11   29 2
  20   12   17 1
  21   12   13 1
  22   12   36 1
  23   13   14 1
  24   13   37 1
  25   13   38 1
  26   14   15 1
  27   14   39 1
  28   14   40 1
  29   15   16 1
  30   15   18 am
  31   16   17 1
  32   16   41 1
  33   16   42 1
  34   17   43 1
  35   17   44 1
  36   18   19 2
  37   18   20 am
  38   20   21 1
  39   20   45 1
  40   21   28 1
  41   21   22 1
  42   21   46 1
  43   22   23 1
  44   22   47 1
  45   22   48 1
  46   23   24 1
  47   23   49 1
  48   23   50 1
  49   24   25 1
  50   24   26 1
  51   24   27 1
  52   27   28 1
  53   27   51 1
  54   27   52 1
  55   28   53 1
  56   28   54 1
  57   29   30 1

#	End of record

