#	Name: ASD01917717
#	Creating user name:	WinNT
#	Creation time:	15. 06. 2019 20:09

#	Modifying user name:	WinNT
#	Modification time:	15. 06. 2019 20:09

#	Program:	/corina/corina34_cracker 3.40 0067  02.08.2006

@<TRIPOS>MOLECULE
ASD01917717
  42   45    0    0    0
SMALL
NO_CHARGES


@<TRIPOS>ATOM
   1 C1            -0.0140     1.4937     0.0245 C.3     
   2 C2             0.0204    -0.0167     0.0081 C.2     
   3 C3             2.4650    -0.1848    -0.4927 C.3     
   4 C4             2.3200     1.2814    -0.9140 C.3     
   5 N5             1.3859     1.9574    -0.0009 N.am    
   6 C6            -1.0013    -0.8650     0.2168 C.2     
   7 C7            -0.5002    -2.1780     0.0954 C.2     
   8 N8             0.7871    -2.0984    -0.1760 N.2     
   9 N9             1.1364    -0.7461    -0.2309 N.pl3   
  10 C10            1.7964     2.9700     0.7881 C.2     
  11 O11            2.9744     3.2666     0.8326 O.2     
  12 C12            0.8141     3.7199     1.5996 C.ar    
  13 C13            1.1697     4.2043     2.8596 C.ar    
  14 C14           -0.4709     3.9515     1.1068 C.ar    
  15 C15           -1.3829     4.6521     1.8692 C.ar    
  16 C16           -1.0259     5.1245     3.1195 C.ar    
  17 C17            0.2484     4.9032     3.6116 C.ar    
  18 C18           -1.2840    -3.4283     0.2471 C.ar    
  19 C19           -0.6523    -4.6615     0.0989 C.ar    
  20 C20           -1.3952    -5.8196     0.2430 C.ar    
  21 C21           -2.7502    -5.7067     0.5314 C.ar    
  22 C22           -3.3124    -4.4483     0.6650 C.ar    
  23 N23           -2.5787    -3.3624     0.5277 N.ar    
  24 F24           -3.5110    -6.8132     0.6793 F       
  25 C25            0.6305     5.4269     4.9720 C.3     
  26 H26           -0.5441     1.8631    -0.8533 H       
  27 H27           -0.5055     1.8446     0.9319 H       
  28 H28            2.9468    -0.7474    -1.2924 H       
  29 H29            3.0704    -0.2455     0.4116 H       
  30 H30            3.2927     1.7713    -0.8682 H       
  31 H31            1.9341     1.3313    -1.9322 H       
  32 H32           -2.0223    -0.5907     0.4376 H       
  33 H33            2.1638     4.0319     3.2449 H       
  34 H34           -0.7507     3.5836     0.1308 H       
  35 H35           -2.3775     4.8323     1.4889 H       
  36 H36           -1.7434     5.6726     3.7121 H       
  37 H37            0.4029    -4.7125    -0.1256 H       
  38 H38           -0.9328    -6.7895     0.1334 H       
  39 H39           -4.3649    -4.3558     0.8888 H       
  40 H40            1.0403     6.4320     4.8725 H       
  41 H41           -0.2520     5.4560     5.6111 H       
  42 H42            1.3795     4.7714     5.4164 H       
@<TRIPOS>BOND
   1    1    2 1
   2    1    5 1
   3    1   26 1
   4    1   27 1
   5    2    6 2
   6    2    9 1
   7    3    4 1
   8    3    9 1
   9    3   28 1
  10    3   29 1
  11    4    5 1
  12    4   30 1
  13    4   31 1
  14    5   10 am
  15    6    7 1
  16    6   32 1
  17    7    8 2
  18    7   18 1
  19    8    9 1
  20   10   11 2
  21   10   12 1
  22   12   14 ar
  23   12   13 ar
  24   13   17 ar
  25   13   33 1
  26   14   15 ar
  27   14   34 1
  28   15   16 ar
  29   15   35 1
  30   16   17 ar
  31   16   36 1
  32   17   25 1
  33   18   19 ar
  34   18   23 ar
  35   19   20 ar
  36   19   37 1
  37   20   21 ar
  38   20   38 1
  39   21   22 ar
  40   21   24 1
  41   22   23 ar
  42   22   39 1
  43   25   40 1
  44   25   41 1
  45   25   42 1

#	End of record

