#	Name: ASD05250052
#	Creating user name:	WinNT
#	Creation time:	15. 06. 2019 20:58

#	Modifying user name:	WinNT
#	Modification time:	15. 06. 2019 20:58

#	Program:	/corina/corina34_cracker 3.40 0067  02.08.2006

@<TRIPOS>MOLECULE
ASD05250052
  71   76    0    0    0
SMALL
NO_CHARGES


@<TRIPOS>ATOM
   1 S1             0.0241     1.7205    -0.0701 S.3     
   2 S2            -3.7732     5.5540    -2.2301 S.3     
   3 O3            -0.0105     5.9478    -6.7651 O.3     
   4 O4             0.6928     5.7442    -1.9203 O.2     
   5 N5             0.6174    -4.2806     2.6591 N.3     
   6 N6            -0.9326    -0.9095     0.2740 N.ar    
   7 N7             2.2200     0.6532     0.5429 N.2     
   8 N8             0.5453     4.3579    -0.1907 N.am    
   9 N9            -2.2863     4.3887    -0.5778 N.2     
  10 C10            0.5993    -5.7178     2.9881 C.3     
  11 C11            1.7106    -3.6375     3.4189 C.3     
  12 C12            1.9393    -4.5609     4.6414 C.3     
  13 C13            1.7211    -5.9650     4.0187 C.3     
  14 C14            0.7873    -4.0733     1.2148 C.3     
  15 C15            0.5567    -2.6210     0.8852 C.ar    
  16 C16            1.6084    -1.7324     0.9019 C.ar    
  17 C17           -0.7151    -2.1733     0.5634 C.ar    
  18 C18            1.3593    -0.3767     0.5886 C.ar    
  19 C19            0.0446    -0.0081     0.2750 C.ar    
  20 C20            1.7541     1.8152     0.2281 C.2     
  21 C21            2.5601     3.0490     0.1316 C.ar    
  22 C22           -1.3870     6.6712    -3.3450 C.3     
  23 C23            1.9333     4.2863    -0.0747 C.ar    
  24 C24           -2.0839     5.7995    -2.3323 C.2     
  25 C25           -1.0411     5.8395    -4.5818 C.3     
  26 C26           -1.4734     5.0868    -1.3586 C.2     
  27 C27            3.9489     2.9907     0.2509 C.ar    
  28 C28           -0.3336     6.7246    -5.6099 C.3     
  29 C29           -0.0117     5.0866    -1.1781 C.2     
  30 C30           -3.5521     4.4825    -0.8515 C.2     
  31 C31            2.7004     5.4389    -0.1632 C.ar    
  32 C32            4.6965     4.1465     0.1604 C.ar    
  33 C33            4.0751     5.3659    -0.0485 C.ar    
  34 C34           -4.6386     3.7965    -0.1189 C.ar    
  35 C35           -4.3394     2.9677     0.9630 C.ar    
  36 C36           -5.9672     3.9799    -0.5031 C.ar    
  37 C37           -5.3575     2.3310     1.6426 C.ar    
  38 C38           -6.9761     3.3374     0.1847 C.ar    
  39 C39            0.6568     6.6837    -7.7923 C.3     
  40 C40           -6.6725     2.5129     1.2533 C.ar    
  41 H41            2.6136    -3.5820     2.8110 H       
  42 H42            1.4107    -2.6420     3.7461 H       
  43 H43           -0.3653    -5.9877     3.4180 H       
  44 H44            0.7850    -6.3062     2.0896 H       
  45 H45            2.9544    -4.4572     5.0246 H       
  46 H46            1.2062    -4.3624     5.4233 H       
  47 H47            1.3970    -6.6771     4.7777 H       
  48 H48            2.6284    -6.3128     3.5248 H       
  49 H49            1.7990    -4.3558     0.9237 H       
  50 H50            0.0684    -4.6875     0.6726 H       
  51 H51            2.6055    -2.0651     1.1499 H       
  52 H52           -1.5384    -2.8720     0.5506 H       
  53 H53           -2.0444     7.4921    -3.6314 H       
  54 H54           -0.4721     7.0733    -2.9100 H       
  55 H55           -0.3837     5.0186    -4.2954 H       
  56 H56           -1.9561     5.4375    -5.0168 H       
  57 H57            4.4382     2.0419     0.4143 H       
  58 H58           -0.0192     3.8831     0.4393 H       
  59 H59            0.5813     7.1267    -5.1749 H       
  60 H60           -0.9910     7.5455    -5.8963 H       
  61 H61            2.2223     6.3942    -0.3224 H       
  62 H62            5.7715     4.1000     0.2534 H       
  63 H63            4.6683     6.2657    -0.1184 H       
  64 H64           -3.3132     2.8247     1.2676 H       
  65 H65           -6.2055     4.6236    -1.3369 H       
  66 H66           -5.1273     1.6890     2.4800 H       
  67 H67           -8.0050     3.4789    -0.1115 H       
  68 H68            0.0200     7.5038    -8.1240 H       
  69 H69            1.5923     7.0850    -7.4025 H       
  70 H70            0.8672     6.0237    -8.6339 H       
  71 H71           -7.4659     2.0122     1.7885 H       
@<TRIPOS>BOND
   1    1   19 1
   2    1   20 1
   3    2   24 1
   4    2   30 1
   5    3   28 1
   6    3   39 1
   7    4   29 2
   8    5   10 1
   9    5   11 1
  10    5   14 1
  11    6   17 ar
  12    6   19 ar
  13    7   18 1
  14    7   20 2
  15    8   23 1
  16    8   29 am
  17    8   58 1
  18    9   26 1
  19    9   30 2
  20   10   13 1
  21   10   43 1
  22   10   44 1
  23   11   12 1
  24   11   41 1
  25   11   42 1
  26   12   13 1
  27   12   45 1
  28   12   46 1
  29   13   47 1
  30   13   48 1
  31   14   15 1
  32   14   49 1
  33   14   50 1
  34   15   16 ar
  35   15   17 ar
  36   16   18 ar
  37   16   51 1
  38   17   52 1
  39   18   19 ar
  40   20   21 1
  41   21   23 ar
  42   21   27 ar
  43   22   24 1
  44   22   25 1
  45   22   53 1
  46   22   54 1
  47   23   31 ar
  48   24   26 2
  49   25   28 1
  50   25   55 1
  51   25   56 1
  52   26   29 1
  53   27   32 ar
  54   27   57 1
  55   28   59 1
  56   28   60 1
  57   30   34 1
  58   31   33 ar
  59   31   61 1
  60   32   33 ar
  61   32   62 1
  62   33   63 1
  63   34   35 ar
  64   34   36 ar
  65   35   37 ar
  66   35   64 1
  67   36   38 ar
  68   36   65 1
  69   37   40 ar
  70   37   66 1
  71   38   40 ar
  72   38   67 1
  73   39   68 1
  74   39   69 1
  75   39   70 1
  76   40   71 1

#	End of record

