#	Name: ASD04880076
#	Creating user name:	WinNT
#	Creation time:	15. 06. 2019 20:52

#	Modifying user name:	WinNT
#	Modification time:	15. 06. 2019 20:52

#	Program:	/corina/corina34_cracker 3.40 0067  02.08.2006

@<TRIPOS>MOLECULE
ASD04880076
  41   43    0    0    0
SMALL
NO_CHARGES


@<TRIPOS>ATOM
   1 C1            -0.0144     1.2119     0.0087 C.2     
   2 O2             0.0104    -0.0037     0.0313 O.2     
   3 N3             1.1379     1.9085    -0.0485 N.am    
   4 N4             1.2432     3.2906    -0.1905 N.2     
   5 C5             2.4557     3.7259    -0.2190 C.2     
   6 C6             3.4131     2.5633    -0.0851 C.3     
   7 C7             2.4902     1.3343     0.0353 C.3     
   8 C8             2.8489     5.1396    -0.3608 C.ar    
   9 C9             1.8702     6.1307    -0.4772 C.ar    
  10 C10            2.2444     7.4543    -0.6099 C.ar    
  11 C11            3.5947     7.7984    -0.6280 C.ar    
  12 C12            4.5661     6.8153    -0.5126 C.ar    
  13 C13            4.2004     5.4926    -0.3735 C.ar    
  14 O14            3.9607     9.1010    -0.7596 O.3     
  15 C15            5.3614     9.3834    -0.7706 C.3     
  16 O16            1.2948     8.4212    -0.7233 O.3     
  17 C17           -0.0695     7.9968    -0.6975 C.3     
  18 C18           -1.3079     1.9248     0.0377 C.ar    
  19 C19           -2.5053     1.2098    -0.0459 C.ar    
  20 C20           -3.7123     1.8849    -0.0175 C.ar    
  21 C21           -3.7333     3.2654     0.0930 C.ar    
  22 C22           -2.5496     3.9770     0.1760 C.ar    
  23 C23           -1.3393     3.3158     0.1547 C.ar    
  24 F24           -4.8722     1.1968    -0.0981 F       
  25 Cl25          -2.4783    -0.5204    -0.1855 Cl      
  26 H26            4.0457     2.4852    -0.9693 H       
  27 H27            4.0212     2.6702     0.8131 H       
  28 H28            2.6364     0.8353     0.9933 H       
  29 H29            2.6652     0.6431    -0.7891 H       
  30 H30            0.8241     5.8626    -0.4637 H       
  31 H31            5.6114     7.0864    -0.5275 H       
  32 H32            4.9588     4.7296    -0.2790 H       
  33 H33            5.8072     9.0470     0.1655 H       
  34 H34            5.8307     8.8616    -1.6046 H       
  35 H35            5.5148    10.4569    -0.8810 H       
  36 H36           -0.7218     8.8644    -0.7966 H       
  37 H37           -0.2517     7.3090    -1.5232 H       
  38 H38           -0.2756     7.4932     0.2470 H       
  39 H39           -4.6778     3.7888     0.1141 H       
  40 H40           -2.5736     5.0534     0.2620 H       
  41 H41           -0.4171     3.8736     0.2238 H       
@<TRIPOS>BOND
   1    1    2 2
   2    1    3 am
   3    1   18 1
   4    3    4 1
   5    3    7 1
   6    4    5 2
   7    5    6 1
   8    5    8 1
   9    6    7 1
  10    6   26 1
  11    6   27 1
  12    7   28 1
  13    7   29 1
  14    8    9 ar
  15    8   13 ar
  16    9   10 ar
  17    9   30 1
  18   10   11 ar
  19   10   16 1
  20   11   12 ar
  21   11   14 1
  22   12   13 ar
  23   12   31 1
  24   13   32 1
  25   14   15 1
  26   15   33 1
  27   15   34 1
  28   15   35 1
  29   16   17 1
  30   17   36 1
  31   17   37 1
  32   17   38 1
  33   18   19 ar
  34   18   23 ar
  35   19   20 ar
  36   19   25 1
  37   20   21 ar
  38   20   24 1
  39   21   22 ar
  40   21   39 1
  41   22   23 ar
  42   22   40 1
  43   23   41 1

#	End of record

