#	Name: ASD02198181
#	Creating user name:	WinNT
#	Creation time:	15. 06. 2019 20:18

#	Modifying user name:	WinNT
#	Modification time:	15. 06. 2019 20:18

#	Program:	/corina/corina34_cracker 3.40 0067  02.08.2006

@<TRIPOS>MOLECULE
ASD02198181
  44   46    0    0    0
SMALL
NO_CHARGES


@<TRIPOS>ATOM
   1 C1             0.5444     1.3792    -0.6352 C.2     
   2 C2             0.4588     0.0058    -0.5472 C.2     
   3 C3            -0.7736    -0.6864    -0.3179 C.1     
   4 S4             2.1529     1.8716    -0.9127 S.3     
   5 C5             2.7302     0.2129    -0.9124 C.2     
   6 C6             1.6796    -0.6477    -0.7019 C.2     
   7 C7             4.0707    -0.1774    -1.1005 C.2     
   8 C8             5.0903     0.8304    -1.4608 C.ar    
   9 O9             4.3900    -1.3467    -0.9660 O.2     
  10 N10            1.8203    -2.0260    -0.6481 N.pl3   
  11 N11           -0.5257     2.2368    -0.5205 N.pl3   
  12 N12           -1.7513    -1.2356    -0.1361 N.1     
  13 C13            6.4159     0.6616    -1.0543 C.ar    
  14 C14           -0.3151     3.6182    -0.5010 C.ar    
  15 C15           -1.2318     4.4702    -1.1052 C.ar    
  16 C16           -1.0245     5.8363    -1.0865 C.ar    
  17 C17            0.0938     6.3600    -0.4677 C.ar    
  18 C18            1.0149     5.5134     0.1392 C.ar    
  19 C19            0.8069     4.1410     0.1267 C.ar    
  20 C20            7.3632     1.6027    -1.3923 C.ar    
  21 C21            7.0014     2.7191    -2.1365 C.ar    
  22 C22            5.6836     2.8906    -2.5428 C.ar    
  23 C23            4.7317     1.9510    -2.2135 C.ar    
  24 O24            7.9377     3.6449    -2.4671 O.3     
  25 C25            7.4975     4.7679    -3.2333 C.3     
  26 S26            2.4416     6.1822     0.9279 S.3     
  27 C27            2.2470     7.9682     0.6770 C.3     
  28 H28            2.6953    -2.4290    -0.7619 H       
  29 H29            1.0438    -2.5872    -0.4966 H       
  30 H30           -1.4262     1.8825    -0.4532 H       
  31 H31            6.6976    -0.2054    -0.4753 H       
  32 H32           -2.1071     4.0641    -1.5902 H       
  33 H33           -1.7384     6.4960    -1.5571 H       
  34 H34            0.2531     7.4281    -0.4556 H       
  35 H35            1.5207     3.4810     0.5973 H       
  36 H36            8.3884     1.4728    -1.0784 H       
  37 H37            5.4062     3.7595    -3.1211 H       
  38 H38            3.7078     2.0847    -2.5299 H       
  39 H39            7.0812     4.4216    -4.1793 H       
  40 H40            6.7330     5.3102    -2.6769 H       
  41 H41            8.3423     5.4285    -3.4282 H       
  42 H42            2.2188     8.1841    -0.3911 H       
  43 H43            1.3178     8.3010     1.1396 H       
  44 H44            3.0874     8.4927     1.1316 H       
@<TRIPOS>BOND
   1    1    2 2
   2    1    4 1
   3    1   11 1
   4    2    3 1
   5    2    6 1
   6    3   12 3
   7    4    5 1
   8    5    6 2
   9    5    7 1
  10    6   10 1
  11    7    8 1
  12    7    9 2
  13    8   13 ar
  14    8   23 ar
  15   10   28 1
  16   10   29 1
  17   11   14 1
  18   11   30 1
  19   13   20 ar
  20   13   31 1
  21   14   15 ar
  22   14   19 ar
  23   15   16 ar
  24   15   32 1
  25   16   17 ar
  26   16   33 1
  27   17   18 ar
  28   17   34 1
  29   18   19 ar
  30   18   26 1
  31   19   35 1
  32   20   21 ar
  33   20   36 1
  34   21   22 ar
  35   21   24 1
  36   22   23 ar
  37   22   37 1
  38   23   38 1
  39   24   25 1
  40   25   39 1
  41   25   40 1
  42   25   41 1
  43   26   27 1
  44   27   42 1
  45   27   43 1
  46   27   44 1

#	End of record

