#	Name: ASD01883029
#	Creating user name:	WinNT
#	Creation time:	15. 06. 2019 19:45

#	Modifying user name:	WinNT
#	Modification time:	15. 06. 2019 19:45

#	Program:	/corina/corina34_cracker 3.40 0067  02.08.2006

@<TRIPOS>MOLECULE
ASD01883029
  49   52    0    0    0
SMALL
NO_CHARGES


@<TRIPOS>ATOM
   1 N1            -0.0374     1.3781     0.1777 N.am    
   2 C2            -0.0147     0.0414     0.0222 C.2     
   3 C3            -1.2291    -0.6877    -0.0035 C.2     
   4 C4            -2.4402     0.0132     0.1358 C.2     
   5 C5            -2.3974     1.4124     0.2954 C.2     
   6 C6            -1.2071     2.0536     0.3178 C.2     
   7 O7             1.0497    -0.5412    -0.0968 O.2     
   8 C8            -1.2235    -2.1102    -0.1686 C.1     
   9 N9            -1.2190    -3.2386    -0.2995 N.1     
  10 C10            1.2262     2.1190     0.2025 C.3     
  11 C11            1.5972     2.5423    -1.2203 C.3     
  12 C12           -5.3551    -2.0270    -1.0625 C.ar    
  13 C13           -3.7322    -0.7034     0.1147 C.ar    
  14 C14           -4.5389    -0.7260     1.2550 C.ar    
  15 C15           -5.7444    -1.3958     1.2309 C.ar    
  16 C16           -6.1559    -2.0483     0.0726 C.ar    
  17 O17           -7.3432    -2.7070     0.0515 O.3     
  18 C18           -8.4623    -1.9955    -0.2450 C.ar    
  19 C19           -8.3924    -0.6196    -0.4423 C.ar    
  20 C20           -9.5600     0.0625    -0.7431 C.ar    
  21 C21          -10.7471    -0.6401    -0.8368 C.ar    
  22 N22          -10.7791    -1.9441    -0.6440 N.ar    
  23 C23           -9.6900    -2.6311    -0.3612 C.ar    
  24 C24           -4.1500    -1.3596    -1.0457 C.ar    
  25 F25           -6.5261    -1.4189     2.3326 F       
  26 C26          -12.0218     0.0945    -1.1631 C.3     
  27 C27           -9.7816    -4.1204    -0.1501 C.3     
  28 C28            2.8298     3.4318    -1.3939 C.3     
  29 C29            2.8809     1.9625    -1.8177 C.3     
  30 H30           -3.3146     1.9721     0.4042 H       
  31 H31           -1.1866     3.1263     0.4406 H       
  32 H32            1.1158     3.0048     0.8280 H       
  33 H33            2.0125     1.4829     0.6090 H       
  34 H34            0.7576     2.7082    -1.8953 H       
  35 H35           -5.6759    -2.5379    -1.9583 H       
  36 H36           -4.2192    -0.2199     2.1540 H       
  37 H37           -7.4510    -0.0964    -0.3624 H       
  38 H38           -9.5432     1.1305    -0.9022 H       
  39 H39           -3.5285    -1.3442    -1.9287 H       
  40 H40          -12.1601     0.1197    -2.2440 H       
  41 H41          -12.8653    -0.4182    -0.7007 H       
  42 H42          -11.9621     1.1135    -0.7806 H       
  43 H43           -9.6394    -4.6318    -1.1022 H       
  44 H44           -9.0091    -4.4362     0.5509 H       
  45 H45          -10.7628    -4.3705     0.2535 H       
  46 H46            2.8014     4.1827    -2.1835 H       
  47 H47            3.3765     3.7155    -0.4946 H       
  48 H48            3.4611     1.2796    -1.1972 H       
  49 H49            2.8860     1.7468    -2.8862 H       
@<TRIPOS>BOND
   1    1    2 am
   2    1   10 1
   3    1    6 1
   4    2    3 1
   5    2    7 2
   6    3    4 2
   7    3    8 1
   8    4    5 1
   9    4   13 1
  10    5    6 2
  11    5   30 1
  12    6   31 1
  13    8    9 3
  14   10   11 1
  15   10   32 1
  16   10   33 1
  17   11   28 1
  18   11   29 1
  19   11   34 1
  20   12   24 ar
  21   12   16 ar
  22   12   35 1
  23   13   14 ar
  24   13   24 ar
  25   14   15 ar
  26   14   36 1
  27   15   16 ar
  28   15   25 1
  29   16   17 1
  30   17   18 1
  31   18   19 ar
  32   18   23 ar
  33   19   20 ar
  34   19   37 1
  35   20   21 ar
  36   20   38 1
  37   21   22 ar
  38   21   26 1
  39   22   23 ar
  40   23   27 1
  41   24   39 1
  42   26   40 1
  43   26   41 1
  44   26   42 1
  45   27   43 1
  46   27   44 1
  47   27   45 1
  48   28   29 1
  49   28   46 1
  50   28   47 1
  51   29   48 1
  52   29   49 1

#	End of record

