#	Name: ASD01881262
#	Creating user name:	WinNT
#	Creation time:	15. 06. 2019 19:42

#	Modifying user name:	WinNT
#	Modification time:	15. 06. 2019 19:42

#	Program:	/corina/corina34_cracker 3.40 0067  02.08.2006

@<TRIPOS>MOLECULE
ASD01881262
  53   56    0    0    0
SMALL
NO_CHARGES


@<TRIPOS>ATOM
   1 C1             0.0919     1.2628    -0.9039 C.2     
   2 N2             0.1137    -0.0784    -0.8203 N.am    
   3 C3             1.4898    -0.5127    -0.5542 C.3     
   4 C4             2.3215     0.7438    -0.4837 C.ar    
   5 C5             3.6561     0.9757    -0.2649 C.ar    
   6 C6             4.1421     2.2816    -0.2581 C.ar    
   7 C7             3.2740     3.3492    -0.4727 C.ar    
   8 C8             1.9353     3.1204    -0.6924 C.ar    
   9 C9             1.4432     1.8111    -0.7005 C.ar    
  10 O10           -0.9020     1.9287    -1.1217 O.2     
  11 N11            5.4945     2.5190    -0.0364 N.pl3   
  12 C12            6.4079     1.3961     0.1898 C.3     
  13 C13            6.3224     4.4593    -1.2171 C.ar    
  14 C14            5.9815     3.8268    -0.0296 C.ar    
  15 C15            6.1344     4.5253     1.1784 C.ar    
  16 C16            6.6257     5.8320     1.1258 C.ar    
  17 C17            6.9394     6.3823    -0.1000 C.ar    
  18 N18            6.7823     5.6946    -1.2151 N.ar    
  19 C19            5.7839     3.8942     2.4736 C.ar    
  20 C20            6.7303     3.8194     3.4942 C.ar    
  21 C21            6.3985     3.2308     4.6975 C.ar    
  22 C22            5.1295     2.7157     4.8919 C.ar    
  23 C23            4.1863     2.7868     3.8825 C.ar    
  24 C24            4.5050     3.3786     2.6772 C.ar    
  25 C25           -1.0457    -0.9614    -0.9698 C.3     
  26 C26           -1.2018    -1.3536    -2.4405 C.3     
  27 C27           -2.4126    -2.2758    -2.5966 C.3     
  28 C28           -2.5687    -2.6680    -4.0672 C.3     
  29 H29            1.5372    -1.0473     0.3945 H       
  30 H30            1.8441    -1.1518    -1.3631 H       
  31 H31            4.3287     0.1474    -0.0978 H       
  32 H32            3.6530     4.3605    -0.4662 H       
  33 H33            1.2651     3.9509    -0.8581 H       
  34 H34            6.7383     0.9975    -0.7694 H       
  35 H35            7.2725     1.7397     0.7577 H       
  36 H36            5.8924     0.6156     0.7495 H       
  37 H37            6.2139     3.9317    -2.1531 H       
  38 H38            6.7579     6.4039     2.0324 H       
  39 H39            7.3194     7.3921    -0.1475 H       
  40 H40            7.7215     4.2209     3.3434 H       
  41 H41            7.1311     3.1719     5.4889 H       
  42 H42            4.8742     2.2560     5.8352 H       
  43 H43            3.1972     2.3827     4.0397 H       
  44 H44            3.7662     3.4383     1.8916 H       
  45 H45           -0.8993    -1.8584    -0.3681 H       
  46 H46           -1.9436    -0.4419    -0.6351 H       
  47 H47           -1.3482    -0.4566    -3.0422 H       
  48 H48           -0.3039    -1.8731    -2.7752 H       
  49 H49           -2.2662    -3.1728    -1.9949 H       
  50 H50           -3.3105    -1.7563    -2.2618 H       
  51 H51           -3.4313    -3.3250    -4.1784 H       
  52 H52           -2.7152    -1.7710    -4.6689 H       
  53 H53           -1.6708    -3.1875    -4.4019 H       
@<TRIPOS>BOND
   1    1    2 am
   2    1    9 1
   3    1   10 2
   4    2    3 1
   5    2   25 1
   6    3    4 1
   7    3   29 1
   8    3   30 1
   9    4    5 ar
  10    4    9 ar
  11    5    6 ar
  12    5   31 1
  13    6    7 ar
  14    6   11 1
  15    7    8 ar
  16    7   32 1
  17    8    9 ar
  18    8   33 1
  19   11   12 1
  20   11   14 1
  21   12   34 1
  22   12   35 1
  23   12   36 1
  24   13   14 ar
  25   13   18 ar
  26   13   37 1
  27   14   15 ar
  28   15   16 ar
  29   15   19 1
  30   16   17 ar
  31   16   38 1
  32   17   18 ar
  33   17   39 1
  34   19   20 ar
  35   19   24 ar
  36   20   21 ar
  37   20   40 1
  38   21   22 ar
  39   21   41 1
  40   22   23 ar
  41   22   42 1
  42   23   24 ar
  43   23   43 1
  44   24   44 1
  45   25   26 1
  46   25   45 1
  47   25   46 1
  48   26   27 1
  49   26   47 1
  50   26   48 1
  51   27   28 1
  52   27   49 1
  53   27   50 1
  54   28   51 1
  55   28   52 1
  56   28   53 1

#	End of record

