#	Name: ASD01880106
#	Creating user name:	WinNT
#	Creation time:	15. 06. 2019 19:40

#	Modifying user name:	WinNT
#	Modification time:	15. 06. 2019 19:40

#	Program:	/corina/corina34_cracker 3.40 0067  02.08.2006

@<TRIPOS>MOLECULE
ASD01880106
  61   65    0    0    0
SMALL
NO_CHARGES


@<TRIPOS>ATOM
   1 C1            -0.0169     1.3934     0.0097 C.ar    
   2 C2             0.0021    -0.0041     0.0020 C.ar    
   3 C3            -1.1808    -0.7078     0.0100 C.ar    
   4 C4            -2.3984    -0.0268     0.0258 C.ar    
   5 C5            -2.4187     1.3682     0.0335 C.ar    
   6 C6            -1.2372     2.0744     0.0309 C.ar    
   7 C7            -3.6718    -0.7862     0.0339 C.ar    
   8 C8            -3.6553    -2.1799     0.0258 C.ar    
   9 C9            -4.8438    -2.8815     0.0339 C.ar    
  10 C10           -6.0497    -2.2043     0.0500 C.ar    
  11 C11           -6.0723    -0.8209     0.0581 C.ar    
  12 C12           -4.8904    -0.1089     0.0555 C.ar    
  13 C13           -7.3902    -0.0904     0.0756 C.3     
  14 O14           -7.7931     0.1329     1.4284 O.3     
  15 C15           -8.9676     0.7839     1.6218 C.ar    
  16 C16           -9.7185     1.2002     0.5287 C.ar    
  17 C17          -10.9133     1.8619     0.7165 C.ar    
  18 C18          -11.3745     2.1169     2.0102 C.ar    
  19 C19          -10.6092     1.6927     3.1125 C.ar    
  20 C20           -9.4211     1.0285     2.9129 C.ar    
  21 C21          -11.8994     2.4085    -0.2882 C.3     
  22 C22          -13.0376     3.0386     0.5263 C.3     
  23 C23          -12.6585     2.8282     1.9720 C.2     
  24 C24          -13.1448     4.5335     0.2186 C.3     
  25 C25          -13.4311     4.7444    -1.2785 C.3     
  26 C26          -14.7849     5.4785    -1.3691 C.3     
  27 C27          -14.9255     6.1866     0.0012 C.3     
  28 C28          -14.3345     5.1469     0.9855 C.3     
  29 O29          -13.3030     3.1853     2.9356 O.2     
  30 C30           -8.6045     0.5753     4.0956 C.3     
  31 Cl31         -11.1686     2.0020     4.7265 Cl      
  32 C32            1.2507     2.1493     0.0017 C.2     
  33 O33            2.3113     1.5568    -0.0116 O.2     
  34 O34            1.2318     3.4966     0.0091 O.3     
  35 H35            0.9444    -0.5315    -0.0105 H       
  36 H36           -1.1665    -1.7877     0.0037 H       
  37 H37           -3.3619     1.8942     0.0457 H       
  38 H38           -1.2532     3.1543     0.0368 H       
  39 H39           -2.7143    -2.7098     0.0128 H       
  40 H40           -4.8323    -3.9615     0.0272 H       
  41 H41           -6.9773    -2.7574     0.0559 H       
  42 H42           -4.9091     0.9709     0.0618 H       
  43 H43           -7.2818     0.8671    -0.4339 H       
  44 H44           -8.1447    -0.6897    -0.4340 H       
  45 H45           -9.3641     1.0046    -0.4726 H       
  46 H46          -11.4204     3.1648    -0.9099 H       
  47 H47          -12.2863     1.6015    -0.9104 H       
  48 H48          -13.9809     2.5386     0.3066 H       
  49 H49          -12.2199     5.0389     0.4967 H       
  50 H50          -12.6457     5.3528    -1.7268 H       
  51 H51          -13.4937     3.7817    -1.7859 H       
  52 H52          -14.7687     6.2103    -2.1768 H       
  53 H53          -15.5964     4.7656    -1.5152 H       
  54 H54          -14.3459     7.1096     0.0204 H       
  55 H55          -15.9732     6.3824     0.2292 H       
  56 H56          -15.0733     4.3804     1.2197 H       
  57 H57          -13.9897     5.6366     1.8962 H       
  58 H58           -8.9088    -0.4311     4.3830 H       
  59 H59           -7.5479     0.5730     3.8282 H       
  60 H60           -8.7664     1.2563     4.9312 H       
  61 H61            2.0871     3.9477     0.0033 H       
@<TRIPOS>BOND
   1    1    2 ar
   2    1   32 1
   3    1    6 ar
   4    2    3 ar
   5    2   35 1
   6    3    4 ar
   7    3   36 1
   8    4    5 ar
   9    4    7 1
  10    5    6 ar
  11    5   37 1
  12    6   38 1
  13    7    8 ar
  14    7   12 ar
  15    8    9 ar
  16    8   39 1
  17    9   10 ar
  18    9   40 1
  19   10   11 ar
  20   10   41 1
  21   11   12 ar
  22   11   13 1
  23   12   42 1
  24   13   14 1
  25   13   43 1
  26   13   44 1
  27   14   15 1
  28   15   16 ar
  29   15   20 ar
  30   16   17 ar
  31   16   45 1
  32   17   18 ar
  33   17   21 1
  34   18   19 ar
  35   18   23 1
  36   19   20 ar
  37   19   31 1
  38   20   30 1
  39   21   22 1
  40   21   46 1
  41   21   47 1
  42   22   23 1
  43   22   24 1
  44   22   48 1
  45   23   29 2
  46   24   25 1
  47   24   28 1
  48   24   49 1
  49   25   26 1
  50   25   50 1
  51   25   51 1
  52   26   27 1
  53   26   52 1
  54   26   53 1
  55   27   28 1
  56   27   54 1
  57   27   55 1
  58   28   56 1
  59   28   57 1
  60   30   58 1
  61   30   59 1
  62   30   60 1
  63   32   33 2
  64   32   34 1
  65   34   61 1

#	End of record

