#	Name: ASD00451001
#	Creating user name:	WinNT
#	Creation time:	15. 06. 2019 18:36

#	Modifying user name:	WinNT
#	Modification time:	15. 06. 2019 18:36

#	Program:	/corina/corina34_cracker 3.40 0067  02.08.2006

@<TRIPOS>MOLECULE
ASD00451001
  45   48    0    0    0
SMALL
NO_CHARGES


@<TRIPOS>ATOM
   1 C1             0.3538     1.0433     0.0174 C.ar    
   2 C2             0.5596    -0.3134     0.2292 C.ar    
   3 N3             1.4490     1.8987    -0.1624 N.am    
   4 C4            -0.9379     1.5512    -0.0218 C.ar    
   5 C5            -0.5199    -1.1558     0.4065 C.ar    
   6 C6             1.4125     3.1528     0.3298 C.2     
   7 C7            -2.0169     0.7069     0.1498 C.ar    
   8 C8            -1.8102    -0.6469     0.3729 C.ar    
   9 O9             0.3989     3.5701     0.8562 O.2     
  10 N10            2.4994     3.9445     0.2386 N.am    
  11 O11           -2.8730    -1.4777     0.5418 O.3     
  12 C12            2.4290     5.2803     0.6511 C.ar    
  13 C13           -3.1830    -1.8675     1.8051 C.ar    
  14 C14            3.5385     5.8922     1.2187 C.ar    
  15 C15            1.2510     5.9975     0.4881 C.ar    
  16 C16           -4.3018    -2.6580     2.0563 C.ar    
  17 C17           -2.3878    -1.4927     2.8857 C.ar    
  18 C18            3.4664     7.2105     1.6250 C.ar    
  19 C19            1.1841     7.3151     0.8960 C.ar    
  20 N20           -5.2920    -3.2094     1.2458 N.am    
  21 C21           -4.5889    -3.0391     3.3673 C.ar    
  22 C22           -2.7354    -1.9085     4.1553 C.ar    
  23 C23            2.2897     7.9209     1.4672 C.ar    
  24 C24           -6.1434    -3.8957     2.0320 C.2     
  25 N25           -5.7464    -3.8055     3.3150 N.am    
  26 N26           -3.8052    -2.6528     4.3627 N.ar    
  27 Cl27           2.2022     9.5773     1.9793 Cl      
  28 O28           -7.1258    -4.4992     1.6428 O.2     
  29 H29            2.2334     1.5882    -0.6412 H       
  30 H30            3.3305     3.5886    -0.1129 H       
  31 H31           -5.3571    -3.1151     0.2826 H       
  32 H32           -6.1908    -4.2124     4.0751 H       
  33 C33            4.6704     7.8753     2.2412 C.3     
  34 F34            5.7300     6.9635     2.2950 F       
  35 F35            5.0428     8.9778     1.4646 F       
  36 F36            4.3559     8.3018     3.5359 F       
  37 H37            1.5640    -0.7097     0.2550 H       
  38 H38           -1.0985     2.6064    -0.1862 H       
  39 H39           -0.3600    -2.2112     0.5709 H       
  40 H40           -3.0217     1.1019     0.1196 H       
  41 H41            4.4571     5.3379     1.3428 H       
  42 H42            0.3880     5.5252     0.0425 H       
  43 H43           -1.5090    -0.8841     2.7319 H       
  44 H44            0.2682     7.8733     0.7695 H       
  45 H45           -2.1202    -1.6195     4.9946 H       
@<TRIPOS>BOND
   1    1    2 ar
   2    1    3 1
   3    1    4 ar
   4    2    5 ar
   5    2   37 1
   6    3   29 1
   7    3    6 am
   8    4    7 ar
   9    4   38 1
  10    5    8 ar
  11    5   39 1
  12    6    9 2
  13    6   10 am
  14    7    8 ar
  15    7   40 1
  16    8   11 1
  17   10   12 1
  18   10   30 1
  19   11   13 1
  20   12   14 ar
  21   12   15 ar
  22   13   16 ar
  23   13   17 ar
  24   14   18 ar
  25   14   41 1
  26   15   19 ar
  27   15   42 1
  28   16   20 1
  29   16   21 ar
  30   17   22 ar
  31   17   43 1
  32   18   23 ar
  33   18   33 1
  34   19   23 ar
  35   19   44 1
  36   20   31 1
  37   20   24 am
  38   21   26 ar
  39   21   25 1
  40   22   26 ar
  41   22   45 1
  42   23   27 1
  43   24   25 am
  44   24   28 2
  45   25   32 1
  46   33   34 1
  47   33   35 1
  48   33   36 1

#	End of record

