#	Name: ASD03091244
#	Creating user name:	WinNT
#	Creation time:	15. 06. 2019 20:30

#	Modifying user name:	WinNT
#	Modification time:	15. 06. 2019 20:30

#	Program:	/corina/corina34_cracker 3.40 0067  02.08.2006

@<TRIPOS>MOLECULE
ASD03091244
  48   52    0    0    0
SMALL
NO_CHARGES


@<TRIPOS>ATOM
   1 N1            -0.0157     1.3039     0.0083 N.2     
   2 C2             0.0021    -0.0038     0.0376 C.2     
   3 N3             1.1594    -0.7346     0.0633 N.am    
   4 C4             2.3618    -0.1133     0.0593 C.2     
   5 C5             2.3659     1.3568     0.0260 C.ar    
   6 C6             3.5520     2.0873     0.0189 C.ar    
   7 C7             3.4972     3.4705    -0.0133 C.ar    
   8 C8             2.2672     4.1281    -0.0380 C.ar    
   9 C9             1.0966     3.4258    -0.0310 C.ar    
  10 C10            1.1220     2.0280     0.0010 C.ar    
  11 O11            3.4006    -0.7475     0.0827 O.2     
  12 C12           -1.2867    -0.7255     0.0436 C.ar    
  13 C13           -2.4902    -0.0142     0.0184 C.ar    
  14 C14           -3.6928    -0.6981     0.0238 C.ar    
  15 C15           -3.7041    -2.0816     0.0541 C.ar    
  16 C16           -2.5153    -2.7895     0.0791 C.ar    
  17 C17           -1.3089    -2.1212     0.0687 C.ar    
  18 F18           -2.4788     1.3365    -0.0107 F       
  19 Cl19          -5.1897     0.1804    -0.0069 Cl      
  20 N20            7.4096     4.9770    -0.8833 N.3     
  21 C21            7.1452     4.1125     0.2771 C.3     
  22 C22            5.8531     3.3342     0.0839 C.3     
  23 N23            4.6816     4.2124    -0.0207 N.3     
  24 C24            4.7696     5.0522    -1.2235 C.3     
  25 C25            5.3911     6.3992    -0.8862 C.3     
  26 C26            6.8837     6.3269    -0.6344 C.3     
  27 C27            7.0231     4.4510    -2.1749 C.3     
  28 C28            5.5170     4.2948    -2.3058 C.3     
  29 H29            1.1174    -1.7035     0.0849 H       
  30 H30            4.5051     1.5797     0.0387 H       
  31 H31            2.2406     5.2075    -0.0627 H       
  32 H32            0.1520     3.9490    -0.0500 H       
  33 H33           -4.6452    -2.6113     0.0586 H       
  34 H34           -2.5323    -3.8691     0.1027 H       
  35 H35           -0.3828    -2.6766     0.0842 H       
  36 H36            7.9715     3.4121     0.3987 H       
  37 H37            7.0629     4.7286     1.1725 H       
  38 H38            5.9315     2.7403    -0.8267 H       
  39 H39            5.7159     2.6620     0.9309 H       
  40 H40            3.7570     5.2281    -1.5866 H       
  41 H41            5.2092     7.0851    -1.7136 H       
  42 H42            4.9050     6.7949     0.0056 H       
  43 H43            7.0835     6.6013     0.4014 H       
  44 H44            7.3902     7.0330    -1.2924 H       
  45 H45            7.3772     5.1278    -2.9525 H       
  46 H46            7.4930     3.4776    -2.3152 H       
  47 H47            5.2632     3.2370    -2.2376 H       
  48 H48            5.2053     4.6702    -3.2805 H       
@<TRIPOS>BOND
   1    1    2 2
   2    1   10 1
   3    2    3 1
   4    2   12 1
   5    3    4 am
   6    3   29 1
   7    4    5 1
   8    4   11 2
   9    5    6 ar
  10    5   10 ar
  11    6    7 ar
  12    6   30 1
  13    7    8 ar
  14    7   23 1
  15    8    9 ar
  16    8   31 1
  17    9   10 ar
  18    9   32 1
  19   12   13 ar
  20   12   17 ar
  21   13   14 ar
  22   13   18 1
  23   14   15 ar
  24   14   19 1
  25   15   16 ar
  26   15   33 1
  27   16   17 ar
  28   16   34 1
  29   17   35 1
  30   20   21 1
  31   20   26 1
  32   20   27 1
  33   21   22 1
  34   21   36 1
  35   21   37 1
  36   22   23 1
  37   22   38 1
  38   22   39 1
  39   23   24 1
  40   24   25 1
  41   24   28 1
  42   24   40 1
  43   25   26 1
  44   25   41 1
  45   25   42 1
  46   26   43 1
  47   26   44 1
  48   27   28 1
  49   27   45 1
  50   27   46 1
  51   28   47 1
  52   28   48 1

#	End of record

