#	Name: ASD01380004
#	Creating user name:	WinNT
#	Creation time:	15. 06. 2019 19:16

#	Modifying user name:	WinNT
#	Modification time:	15. 06. 2019 19:16

#	Program:	/corina/corina34_cracker 3.40 0067  02.08.2006

@<TRIPOS>MOLECULE
ASD01380004
  64   67    0    0    0
SMALL
NO_CHARGES


@<TRIPOS>ATOM
   1 C1            -0.0524     1.4564    -0.0047 C.3     
   2 N2            -0.0386    -0.0084    -0.0190 N.pl3   
   3 C3             0.5823    -0.6866    -1.0593 C.ar    
   4 C4             1.0735     0.0130    -2.1543 C.ar    
   5 C5             1.6902    -0.6634    -3.1870 C.ar    
   6 C6             1.8244    -2.0420    -3.1420 C.ar    
   7 C7             1.3434    -2.7537    -2.0649 C.ar    
   8 C8             0.7222    -2.0831    -1.0076 C.ar    
   9 C9             0.2056    -2.8376     0.1471 C.2     
  10 O10           -0.2333    -2.2449     1.1130 O.2     
  11 O11            0.2197    -4.1851     0.1326 O.3     
  12 C12           -0.3052    -4.8625     1.3047 C.3     
  13 C13           -0.9132    -6.2235     0.9140 C.3     
  14 C14           -0.8376    -6.4110    -0.6026 C.3     
  15 O15           -1.5066    -7.6200    -0.9671 O.3     
  16 P16           -1.6228    -8.1334    -2.4886 P.3     
  17 O17           -0.2704    -8.2269    -3.0824 O.2     
  18 O18           -2.3214    -9.5837    -2.5137 O.3     
  19 P19           -2.3675   -10.7845    -3.5852 P.3     
  20 O20           -1.0074   -11.0230    -4.1177 O.2     
  21 O21           -2.9057   -12.1223    -2.8692 O.3     
  22 P22           -2.8123   -13.6917    -3.2163 P.3     
  23 O23           -2.9910   -13.8862    -4.6726 O.2     
  24 O24           -1.3707   -14.2546    -2.7726 O.3     
  25 O25           -3.9662   -14.4864    -2.4231 O.3     
  26 O26           -3.3550   -10.3880    -4.7934 O.3     
  27 O27           -2.5117    -7.0948    -3.3391 O.3     
  28 O28           -0.1401    -7.2415     1.5714 O.3     
  29 C29            0.4275    -6.6409     2.7554 C.3     
  30 C30            0.8412    -5.2250     2.2798 C.3     
  31 O31            2.0971    -5.2624     1.5991 O.3     
  32 N32            1.5988    -7.3965     3.2062 N.pl3   
  33 C33            2.3824    -8.2045     2.4372 C.2     
  34 N34            3.3353    -8.7179     3.1598 N.2     
  35 C35            3.2240    -8.2734     4.4346 C.ar    
  36 C36            2.1119    -7.4160     4.4785 C.ar    
  37 N37            1.7847    -6.8410     5.6314 N.ar    
  38 C38            2.4902    -7.0691     6.7189 C.ar    
  39 N39            3.5428    -7.8667     6.7267 N.ar    
  40 C40            3.9479    -8.4825     5.6210 C.ar    
  41 N41            5.0519    -9.3168     5.6391 N.pl3   
  42 H42            0.9718     1.8292     0.0121 H       
  43 H43           -0.5582     1.8238    -0.8975 H       
  44 H44           -0.5809     1.8061     0.8822 H       
  45 H45           -0.4633    -0.5045     0.6982 H       
  46 H46            0.9723     1.0874    -2.1975 H       
  47 H47            2.0704    -0.1148    -4.0360 H       
  48 H48            2.3084    -2.5613    -3.9558 H       
  49 H49            1.4504    -3.8279    -2.0353 H       
  50 H50           -1.0497    -4.2408     1.8021 H       
  51 H51           -1.9514    -6.2736     1.2421 H       
  52 H52           -1.3177    -5.5667    -1.0975 H       
  53 H53            0.2066    -6.4666    -0.9102 H       
  54 H54           -1.1850   -14.1597    -1.8284 H       
  55 H55           -3.9698   -15.4397    -2.5853 H       
  56 H56           -4.2658   -10.2171    -4.5170 H       
  57 H57           -3.4126    -6.9833    -3.0059 H       
  58 H58           -0.3178    -6.5770     3.5483 H       
  59 H59            0.8748    -4.5278     3.1171 H       
  60 H60            2.8320    -5.5714     2.1463 H       
  61 H61            2.2341    -8.3912     1.3839 H       
  62 H62            2.1975    -6.5857     7.6392 H       
  63 H63            5.5398    -9.4577     6.4655 H       
  64 H64            5.3377    -9.7607     4.8254 H       
@<TRIPOS>BOND
   1    1    2 1
   2    1   42 1
   3    1   43 1
   4    1   44 1
   5    2    3 1
   6    2   45 1
   7    3    4 ar
   8    3    8 ar
   9    4    5 ar
  10    4   46 1
  11    5    6 ar
  12    5   47 1
  13    6    7 ar
  14    6   48 1
  15    7    8 ar
  16    7   49 1
  17    8    9 1
  18    9   10 2
  19    9   11 1
  20   11   12 1
  21   12   13 1
  22   12   30 1
  23   12   50 1
  24   13   14 1
  25   13   28 1
  26   13   51 1
  27   14   15 1
  28   14   52 1
  29   14   53 1
  30   15   16 1
  31   16   17 2
  32   16   18 1
  33   16   27 1
  34   18   19 1
  35   19   20 2
  36   19   21 1
  37   19   26 1
  38   21   22 1
  39   22   23 2
  40   22   24 1
  41   22   25 1
  42   24   54 1
  43   25   55 1
  44   26   56 1
  45   27   57 1
  46   28   29 1
  47   29   30 1
  48   29   32 1
  49   29   58 1
  50   30   31 1
  51   30   59 1
  52   31   60 1
  53   32   33 1
  54   32   36 1
  55   33   34 2
  56   33   61 1
  57   34   35 1
  58   35   36 ar
  59   35   40 ar
  60   36   37 ar
  61   37   38 ar
  62   38   39 ar
  63   38   62 1
  64   39   40 ar
  65   40   41 1
  66   41   63 1
  67   41   64 1

#	End of record

