#	Name: ASD01140391
#	Creating user name:	WinNT
#	Creation time:	15. 06. 2019 19:00

#	Modifying user name:	WinNT
#	Modification time:	15. 06. 2019 19:00

#	Program:	/corina/corina34_cracker 3.40 0067  02.08.2006

@<TRIPOS>MOLECULE
ASD01140391
  45   48    0    0    0
SMALL
NO_CHARGES


@<TRIPOS>ATOM
   1 S1            -0.0218     1.7596     0.0117 S.3     
   2 C2             0.0021    -0.0041     0.0020 C.2     
   3 N3             1.2510    -0.3836    -0.0119 N.2     
   4 N4             2.1158     0.5364    -0.0153 N.2     
   5 C5             1.6909     1.7659    -0.0046 C.2     
   6 O6             2.4749     2.8707    -0.0066 O.3     
   7 C7             6.0916     3.6706    -0.6236 C.3     
   8 C8             4.5675     3.8299    -0.7439 C.3     
   9 C9             3.8886     2.6629    -0.0211 C.3     
  10 C10            4.4054     2.5751     1.4178 C.3     
  11 C11            5.9404     2.5009     1.3915 C.3     
  12 C12            6.3446     1.4368     0.3452 C.3     
  13 C13            6.4445     2.2097    -0.9863 C.3     
  14 N14            6.4339     3.7818     0.8193 N.3     
  15 C15            7.8845     3.9181     1.0073 C.3     
  16 C16           -1.1775    -0.8910     0.0093 C.ar    
  17 C17           -1.0079    -2.2791     0.0001 C.ar    
  18 C18           -2.0980    -3.1006     0.0063 C.ar    
  19 C19           -3.3872    -2.5525     0.0224 C.ar    
  20 C20           -3.5557    -1.1618     0.0320 C.ar    
  21 C21           -2.4637    -0.3426     0.0310 C.ar    
  22 C22           -4.5611    -3.4352     0.0286 C.2     
  23 O23           -4.4146    -4.6393     0.0198 O.2     
  24 C24           -5.9476    -2.8449     0.0459 C.3     
  25 H25            6.6296     4.3900    -1.2410 H       
  26 H26            4.2615     4.7706    -0.2861 H       
  27 H27            4.2817     3.8238    -1.7957 H       
  28 H28            4.1130     1.7330    -0.5435 H       
  29 H29            4.0921     3.4593     1.9728 H       
  30 H30            4.0048     1.6811     1.8956 H       
  31 H31            6.3582     2.2903     2.3760 H       
  32 H32            7.3089     0.9986     0.6027 H       
  33 H33            5.5809     0.6620     0.2776 H       
  34 H34            5.7300     1.8150    -1.7086 H       
  35 H35            7.4579     2.1517    -1.3835 H       
  36 H36            8.2346     4.8143     0.4950 H       
  37 H37            8.1070     3.9975     2.0714 H       
  38 H38            8.3880     3.0438     0.5950 H       
  39 H39           -0.0139    -2.7013    -0.0123 H       
  40 H40           -1.9668    -4.1725    -0.0015 H       
  41 H41           -4.5490    -0.7380     0.0444 H       
  42 H42           -2.5933     0.7295     0.0429 H       
  43 H43           -6.0894    -2.2244    -0.8390 H       
  44 H44           -6.6844    -3.6481     0.0482 H       
  45 H45           -6.0718    -2.2352     0.9408 H       
@<TRIPOS>BOND
   1    1    2 1
   2    1    5 1
   3    2    3 2
   4    2   16 1
   5    3    4 1
   6    4    5 2
   7    5    6 1
   8    6    9 1
   9    7    8 1
  10    7   13 1
  11    7   14 1
  12    7   25 1
  13    8    9 1
  14    8   26 1
  15    8   27 1
  16    9   10 1
  17    9   28 1
  18   10   11 1
  19   10   29 1
  20   10   30 1
  21   11   12 1
  22   11   14 1
  23   11   31 1
  24   12   13 1
  25   12   32 1
  26   12   33 1
  27   13   34 1
  28   13   35 1
  29   14   15 1
  30   15   36 1
  31   15   37 1
  32   15   38 1
  33   16   17 ar
  34   16   21 ar
  35   17   18 ar
  36   17   39 1
  37   18   19 ar
  38   18   40 1
  39   19   20 ar
  40   19   22 1
  41   20   21 ar
  42   20   41 1
  43   21   42 1
  44   22   23 2
  45   22   24 1
  46   24   43 1
  47   24   44 1
  48   24   45 1

#	End of record

