#	Name: ASD01140098
#	Creating user name:	WinNT
#	Creation time:	15. 06. 2019 18:59

#	Modifying user name:	WinNT
#	Modification time:	15. 06. 2019 18:59

#	Program:	/corina/corina34_cracker 3.40 0067  02.08.2006

@<TRIPOS>MOLECULE
ASD01140098
  21   21    0    0    0
SMALL
NO_CHARGES


@<TRIPOS>ATOM
   1 S1            -0.0292     1.8062     0.0306 S.3     
   2 C2             0.0008    -0.0127     0.0161 C.3     
   3 C3             1.4253    -0.3758     0.4757 C.3     
   4 C4             2.3536     0.7247    -0.0410 C.3     
   5 C5             1.6689     2.0634     0.0089 C.2     
   6 O6             2.2228     3.1426     0.0298 O.2     
   7 C7             3.6136     0.7699     0.8258 C.3     
   8 C8             4.2581    -0.6172     0.8617 C.3     
   9 C9             2.7489     0.4138    -1.4860 C.3     
  10 H10           -0.7372    -0.4113     0.7122 H       
  11 H11           -0.1820    -0.3885    -0.9906 H       
  12 H12            1.4662    -0.4168     1.5642 H       
  13 H13            1.7183    -1.3378     0.0553 H       
  14 H14            4.3183     1.4873     0.4053 H       
  15 H15            3.3473     1.0731     1.8384 H       
  16 H16            3.5863    -1.3172     1.3585 H       
  17 H17            4.4477    -0.9562    -0.1568 H       
  18 H18            5.1994    -0.5665     1.4089 H       
  19 H19            1.8536     0.3701    -2.1062 H       
  20 H20            3.4107     1.1960    -1.8580 H       
  21 H21            3.2640    -0.5460    -1.5233 H       
@<TRIPOS>BOND
   1    1    2 1
   2    1    5 1
   3    2    3 1
   4    2   10 1
   5    2   11 1
   6    3    4 1
   7    3   12 1
   8    3   13 1
   9    4    5 1
  10    4    7 1
  11    4    9 1
  12    5    6 2
  13    7    8 1
  14    7   14 1
  15    7   15 1
  16    8   16 1
  17    8   17 1
  18    8   18 1
  19    9   19 1
  20    9   20 1
  21    9   21 1

#	End of record

