#	Name: ASD01060001
#	Creating user name:	WinNT
#	Creation time:	15. 06. 2019 18:58

#	Modifying user name:	WinNT
#	Modification time:	15. 06. 2019 18:58

#	Program:	/corina/corina34_cracker 3.40 0067  02.08.2006

@<TRIPOS>MOLECULE
ASD01060001
  55   59    0    0    0
SMALL
NO_CHARGES


@<TRIPOS>ATOM
   1 N1            -0.0160     1.3273     0.0093 N.am    
   2 C2             0.0021    -0.0041     0.0020 C.2     
   3 C3             1.2917    -0.7750    -0.0770 C.3     
   4 N4             1.9447    -0.4756    -1.3506 N.2     
   5 C5             2.3562     0.6974    -1.6396 C.2     
   6 C6             2.2420     1.8684    -0.7653 C.ar    
   7 C7             1.1089     2.1377     0.0030 C.ar    
   8 C8             3.3345     2.7495    -0.7107 C.ar    
   9 C9             3.2917     3.8663     0.0928 C.ar    
  10 C10            2.1650     4.1291     0.8558 C.ar    
  11 C11            1.0851     3.2747     0.8123 C.ar    
  12 O12           -1.0468    -0.6102     0.0609 O.2     
  13 C13            3.0104     0.8936    -2.9830 C.3     
  14 C14            3.1393    -0.4349    -3.6655 C.2     
  15 C15            2.3259    -0.8296    -4.5971 C.2     
  16 C16            1.1777     0.0041    -5.0807 C.3     
  17 C17            1.3707     1.4485    -4.7286 C.2     
  18 C18            2.1848     1.8434    -3.7976 C.2     
  19 O19            1.0723    -0.1220    -6.5002 O.3     
  20 C20            2.2069    -0.3625     1.0776 C.3     
  21 C21            4.5344    -0.8203     0.3580 C.ar    
  22 C22            3.4450    -1.2216     1.0688 C.ar    
  23 C23            3.4577    -2.4144     1.7887 C.ar    
  24 C24            4.5597    -3.2135     1.8018 C.ar    
  25 C25            5.7032    -2.8326     1.0797 C.ar    
  26 C26            6.8598    -3.6310     1.0697 C.ar    
  27 C27            7.9488    -3.2298     0.3590 C.ar    
  28 C28            7.9362    -2.0363    -0.3608 C.ar    
  29 C29            6.8346    -1.2374    -0.3740 C.ar    
  30 C30            5.6903    -1.6190     0.3473 C.ar    
  31 C31           -1.3244     1.9861     0.0189 C.3     
  32 Cl32           4.6500     4.9459     0.1509 Cl      
  33 H33            1.0829    -1.8431    -0.0160 H       
  34 H34            4.2149     2.5490    -1.3033 H       
  35 H35            2.1337     5.0051     1.4867 H       
  36 H36            0.2109     3.4870     1.4099 H       
  37 H37            4.0036     1.3187    -2.8379 H       
  38 H38            3.9439    -1.0918    -3.3696 H       
  39 H39            2.4830    -1.8008    -5.0428 H       
  40 H40            0.2567    -0.3555    -4.6217 H       
  41 H41            0.8086     2.1926    -5.2733 H       
  42 H42            2.2706     2.9020    -3.6012 H       
  43 H43            0.3497     0.3904    -6.8880 H       
  44 H44            2.4897     0.6837     0.9611 H       
  45 H45            1.6805    -0.4934     2.0231 H       
  46 H46            4.5087     0.1049    -0.1986 H       
  47 H47            2.5802    -2.7094     2.3449 H       
  48 H48            4.5552    -4.1353     2.3646 H       
  49 H49            6.8843    -4.5580     1.6233 H       
  50 H50            8.8363    -3.8452     0.3530 H       
  51 H51            8.8141    -1.7409    -0.9162 H       
  52 H52            6.8396    -0.3151    -0.9357 H       
  53 H53           -2.1111     1.2317     0.0184 H       
  54 H54           -1.4138     2.6036     0.9127 H       
  55 H55           -1.4219     2.6133    -0.8672 H       
@<TRIPOS>BOND
   1    1    2 am
   2    1    7 1
   3    1   31 1
   4    2    3 1
   5    2   12 2
   6    3    4 1
   7    3   20 1
   8    3   33 1
   9    4    5 2
  10    5    6 1
  11    5   13 1
  12    6    7 ar
  13    6    8 ar
  14    7   11 ar
  15    8    9 ar
  16    8   34 1
  17    9   10 ar
  18    9   32 1
  19   10   11 ar
  20   10   35 1
  21   11   36 1
  22   13   14 1
  23   13   18 1
  24   13   37 1
  25   14   15 2
  26   14   38 1
  27   15   16 1
  28   15   39 1
  29   16   17 1
  30   16   19 1
  31   16   40 1
  32   17   18 2
  33   17   41 1
  34   18   42 1
  35   19   43 1
  36   20   22 1
  37   20   44 1
  38   20   45 1
  39   21   22 ar
  40   21   30 ar
  41   21   46 1
  42   22   23 ar
  43   23   24 ar
  44   23   47 1
  45   24   25 ar
  46   24   48 1
  47   25   26 ar
  48   25   30 ar
  49   26   27 ar
  50   26   49 1
  51   27   28 ar
  52   27   50 1
  53   28   29 ar
  54   28   51 1
  55   29   30 ar
  56   29   52 1
  57   31   53 1
  58   31   54 1
  59   31   55 1

#	End of record

