#	Name: ASD02030416
#	Creating user name:	WinNT
#	Creation time:	15. 06. 2019 20:15

#	Modifying user name:	WinNT
#	Modification time:	15. 06. 2019 20:15

#	Program:	/corina/corina34_cracker 3.40 0067  02.08.2006

@<TRIPOS>MOLECULE
ASD02030416
  34   37    0    0    0
SMALL
NO_CHARGES


@<TRIPOS>ATOM
   1 C1            -0.0164     1.3558     0.0095 C.ar    
   2 C2             0.0021    -0.0041     0.0020 C.ar    
   3 C3             1.2179    -0.7054    -0.0134 C.ar    
   4 C4             2.4248    -0.0148    -0.0212 C.ar    
   5 C5             1.1882     2.0772     0.0019 C.ar    
   6 C6             2.3323     4.1988     0.0028 C.ar    
   7 C7             1.1841     3.4906     0.0099 C.ar    
   8 C8             2.4177     1.3783    -0.0136 C.ar    
   9 C9             3.6660     2.1483    -0.0214 C.ar    
  10 C10            3.5935     3.5594    -0.0132 C.ar    
  11 C11            4.9117     1.5188    -0.0361 C.ar    
  12 C12            6.0508     2.2727    -0.0424 C.ar    
  13 C13            5.9840     3.6610    -0.0340 C.ar    
  14 C14            4.7812     4.3045    -0.0200 C.ar    
  15 C15            2.2694     5.7045     0.0110 C.3     
  16 C16            1.5511     6.3879    -1.1543 C.3     
  17 C17            0.9013     6.3533     0.2304 C.3     
  18 C18            1.2153    -2.1815    -0.0208 C.2     
  19 O19            0.0473    -2.8532    -0.0129 O.3     
  20 O20            2.2663    -2.7907    -0.0342 O.2     
  21 H21           -0.9595     1.8819     0.0168 H       
  22 H22           -0.9294    -0.5506     0.0084 H       
  23 H23            3.3604    -0.5541    -0.0327 H       
  24 H24            0.2404     4.0155     0.0217 H       
  25 H25            4.9746     0.4407    -0.0421 H       
  26 H26            7.0141     1.7846    -0.0538 H       
  27 H27            6.8968     4.2381    -0.0389 H       
  28 H28            4.7441     5.3839    -0.0134 H       
  29 H29            3.1393     6.2091     0.4315 H       
  30 H30            1.9482     7.3422    -1.5002 H       
  31 H31            1.1240     5.7484    -1.9268 H       
  32 H32            0.0466     5.6911     0.3688 H       
  33 H33            0.8708     7.2849     0.7955 H       
  34 H34            0.0962    -3.8189    -0.0182 H       
@<TRIPOS>BOND
   1    1    2 ar
   2    1    5 ar
   3    1   21 1
   4    2    3 ar
   5    2   22 1
   6    3    4 ar
   7    3   18 1
   8    4    8 ar
   9    4   23 1
  10    5    8 ar
  11    5    7 ar
  12    6    7 ar
  13    6   10 ar
  14    6   15 1
  15    7   24 1
  16    8    9 ar
  17    9   11 ar
  18    9   10 ar
  19   10   14 ar
  20   11   12 ar
  21   11   25 1
  22   12   13 ar
  23   12   26 1
  24   13   14 ar
  25   13   27 1
  26   14   28 1
  27   15   16 1
  28   15   17 1
  29   15   29 1
  30   16   17 1
  31   16   30 1
  32   16   31 1
  33   17   32 1
  34   17   33 1
  35   18   19 1
  36   18   20 2
  37   19   34 1

#	End of record

