#	Name: ASD03430346
#	Creating user name:	WinNT
#	Creation time:	15. 06. 2019 20:40

#	Modifying user name:	WinNT
#	Modification time:	15. 06. 2019 20:40

#	Program:	/corina/corina34_cracker 3.40 0067  02.08.2006

@<TRIPOS>MOLECULE
ASD03430346
  54   59    0    0    0
SMALL
NO_CHARGES


@<TRIPOS>ATOM
   1 C1            -0.0167     1.3822     0.0096 C.ar    
   2 C2             0.0021    -0.0041     0.0020 C.ar    
   3 C3             1.2028    -0.6818    -0.0120 C.ar    
   4 C4             2.4086     0.0128    -0.0082 C.ar    
   5 C5             2.3862     1.4039    -0.0079 C.ar    
   6 C6             1.1815     2.0868     0.0020 C.ar    
   7 O7             3.4712    -0.8419     0.0113 O.3     
   8 C8             1.5508    -2.1459    -0.0438 C.3     
   9 C9             3.0394    -2.1474    -0.4174 C.3     
  10 C10            0.4207    -3.8574     1.0055 C.ar    
  11 C11            1.3010    -2.8195     1.2726 C.ar    
  12 C12            0.7259    -2.9065    -1.0422 C.2     
  13 N13            0.1024    -3.8849    -0.3559 N.am    
  14 O14            0.6380    -2.6841    -2.2313 O.2     
  15 C15            1.7562    -2.5927     2.5648 C.ar    
  16 C16            1.3312    -3.4144     3.6162 C.ar    
  17 C17            0.4385    -4.4657     3.3269 C.ar    
  18 C18           -0.0005    -4.6756     2.0574 C.ar    
  19 C19           -0.8027    -4.8627    -0.9651 C.3     
  20 O20           -1.2114     2.0355     0.0189 O.3     
  21 C21           -1.1862     3.4165     0.3966 C.3     
  22 C22           -0.0352     4.0982    -0.3557 C.3     
  23 O23            1.1867     3.4485     0.0075 O.3     
  24 C24           -2.2335    -4.3217    -0.9341 C.3     
  25 O25           -2.3212    -3.1592    -1.7606 O.3     
  26 C26           -3.6234    -2.5722    -1.8018 C.3     
  27 O27           -3.3251    -1.7474    -4.0537 O.3     
  28 C28           -3.5998    -1.3421    -2.7112 C.3     
  29 C29           -3.2807    -0.6680    -4.9892 C.3     
  30 S30            2.8520    -1.3848     3.2294 S.3     
  31 C31            2.6666    -2.0402     4.7939 C.2     
  32 N32            1.8738    -3.0437     4.7919 N.2     
  33 H33           -0.9268    -0.5550     0.0075 H       
  34 H34            3.3149     1.9551    -0.0152 H       
  35 H35            3.1681    -2.2635    -1.4935 H       
  36 H36            3.5733    -2.9286     0.1237 H       
  37 H37            0.0995    -5.1124     4.1226 H       
  38 H38           -0.6847    -5.4872     1.8587 H       
  39 H39           -0.5036    -5.0403    -1.9981 H       
  40 H40           -0.7557    -5.7980    -0.4073 H       
  41 H41           -2.1314     3.8885     0.1282 H       
  42 H42           -1.0243     3.5010     1.4712 H       
  43 H43           -0.1925     4.0056    -1.4303 H       
  44 H44            0.0114     5.1516    -0.0798 H       
  45 H45           -2.9183    -5.0840    -1.3055 H       
  46 H46           -2.5011    -4.0606     0.0897 H       
  47 H47           -4.3370    -3.2983    -2.1912 H       
  48 H48           -3.9199    -2.2748    -0.7960 H       
  49 H49           -4.5683    -0.8434    -2.6732 H       
  50 H50           -2.8239    -0.6551    -2.3732 H       
  51 H51           -4.2426    -0.1554    -4.9984 H       
  52 H52           -2.4983     0.0329    -4.6984 H       
  53 H53           -3.0675    -1.0582    -5.9844 H       
  54 H54            3.1571    -1.6554     5.6757 H       
@<TRIPOS>BOND
   1    1    2 ar
   2    1    6 ar
   3    1   20 1
   4    2    3 ar
   5    2   33 1
   6    3    4 ar
   7    3    8 1
   8    4    5 ar
   9    4    7 1
  10    5    6 ar
  11    5   34 1
  12    6   23 1
  13    7    9 1
  14    8    9 1
  15    8   11 1
  16    8   12 1
  17    9   35 1
  18    9   36 1
  19   10   11 ar
  20   10   13 1
  21   10   18 ar
  22   11   15 ar
  23   12   13 am
  24   12   14 2
  25   13   19 1
  26   15   16 ar
  27   15   30 1
  28   16   17 ar
  29   16   32 1
  30   17   18 ar
  31   17   37 1
  32   18   38 1
  33   19   24 1
  34   19   39 1
  35   19   40 1
  36   20   21 1
  37   21   22 1
  38   21   41 1
  39   21   42 1
  40   22   23 1
  41   22   43 1
  42   22   44 1
  43   24   25 1
  44   24   45 1
  45   24   46 1
  46   25   26 1
  47   26   28 1
  48   26   47 1
  49   26   48 1
  50   27   28 1
  51   27   29 1
  52   28   49 1
  53   28   50 1
  54   29   51 1
  55   29   52 1
  56   29   53 1
  57   30   31 1
  58   31   32 2
  59   31   54 1

#	End of record

