#	Name: ASD04230060
#	Creating user name:	WinNT
#	Creation time:	15. 06. 2019 20:48

#	Modifying user name:	WinNT
#	Modification time:	15. 06. 2019 20:48

#	Program:	/corina/corina34_cracker 3.40 0067  02.08.2006

@<TRIPOS>MOLECULE
ASD04230060
  53   56    0    0    0
SMALL
NO_CHARGES


@<TRIPOS>ATOM
   1 C1             1.5360     4.6863     1.7198 C.ar    
   2 C2             2.5439     5.3841     2.3695 C.ar    
   3 C3             3.8005     4.8590     2.4681 C.ar    
   4 C4             4.0825     3.6081     1.9003 C.ar    
   5 C5             3.0564     2.8818     1.2692 C.ar    
   6 C6             1.7832     3.4397     1.1726 C.ar    
   7 C7             5.3934     3.0678     1.9619 C.2     
   8 C8             5.6628     1.9284     1.2154 C.2     
   9 C9             4.5671     1.3877     0.3904 C.2     
  10 O10            3.2979     1.6422     0.7793 O.3     
  11 C11            6.9879     1.2871     1.2462 C.2     
  12 N12            7.2188     0.1818     0.5104 N.am    
  13 O13            7.8740     1.7548     1.9357 O.2     
  14 C14            8.5059    -0.3623     0.4509 C.ar    
  15 C15            8.6753    -1.7391     0.3687 C.ar    
  16 C16            9.9457    -2.2806     0.3102 C.ar    
  17 C17           11.0532    -1.4571     0.3326 C.ar    
  18 C18           10.8929    -0.0744     0.4150 C.ar    
  19 C19            9.6134     0.4724     0.4682 C.ar    
  20 C20           12.0818     0.8118     0.4397 C.ar    
  21 O21            4.7981     0.7334    -0.6092 O.2     
  22 C22           12.1589     1.9014    -0.4249 C.ar    
  23 C23           13.2657     2.7242    -0.4000 C.ar    
  24 C24           14.3052     2.4695     0.4849 C.ar    
  25 C25           14.2362     1.3865     1.3491 C.ar    
  26 C26           13.1264     0.5593     1.3352 C.ar    
  27 O27           15.3932     3.2830     0.5040 O.3     
  28 C28           15.3996     4.3794    -0.4125 C.3     
  29 O29           13.0571    -0.5016     2.1806 O.3     
  30 C30           14.1662    -0.7052     3.0584 C.3     
  31 O31            0.7869     2.7610     0.5436 O.3     
  32 C32           -0.4923     3.3951     0.4831 C.3     
  33 H33            0.5488     5.1178     1.6445 H       
  34 H34            2.3328     6.3514     2.8009 H       
  35 H35            4.5764     5.4066     2.9824 H       
  36 H36            6.1576     3.5287     2.5701 H       
  37 H37            6.4924    -0.2364     0.0222 H       
  38 H38            7.8120    -2.3878     0.3508 H       
  39 H39           10.0721    -3.3513     0.2471 H       
  40 H40           12.0443    -1.8839     0.2867 H       
  41 H41            9.4839     1.5427     0.5317 H       
  42 H42           11.3524     2.1017    -1.1147 H       
  43 H43           13.3242     3.5686    -1.0708 H       
  44 H44           15.0465     1.1913     2.0359 H       
  45 H45           14.5463     5.0268    -0.2106 H       
  46 H46           16.3225     4.9470    -0.2935 H       
  47 H47           15.3350     4.0006    -1.4326 H       
  48 H48           13.9830    -1.5832     3.6778 H       
  49 H49           15.0715    -0.8576     2.4707 H       
  50 H50           14.2902     0.1700     3.6962 H       
  51 H51           -0.8555     3.5777     1.4944 H       
  52 H52           -0.4032     4.3429    -0.0477 H       
  53 H53           -1.1939     2.7482    -0.0437 H       
@<TRIPOS>BOND
   1    1    2 ar
   2    1    6 ar
   3    1   33 1
   4    2    3 ar
   5    2   34 1
   6    3    4 ar
   7    3   35 1
   8    4    5 ar
   9    4    7 1
  10    5    6 ar
  11    5   10 1
  12    6   31 1
  13    7    8 2
  14    7   36 1
  15    8    9 1
  16    8   11 1
  17    9   10 1
  18    9   21 2
  19   11   12 am
  20   11   13 2
  21   12   14 1
  22   12   37 1
  23   14   15 ar
  24   14   19 ar
  25   15   16 ar
  26   15   38 1
  27   16   17 ar
  28   16   39 1
  29   17   18 ar
  30   17   40 1
  31   18   19 ar
  32   18   20 1
  33   19   41 1
  34   20   22 ar
  35   20   26 ar
  36   22   23 ar
  37   22   42 1
  38   23   24 ar
  39   23   43 1
  40   24   25 ar
  41   24   27 1
  42   25   26 ar
  43   25   44 1
  44   26   29 1
  45   27   28 1
  46   28   45 1
  47   28   46 1
  48   28   47 1
  49   29   30 1
  50   30   48 1
  51   30   49 1
  52   30   50 1
  53   31   32 1
  54   32   51 1
  55   32   52 1
  56   32   53 1

#	End of record

