#	Name: ASD09720070
#	Creating user name:	WinNT
#	Creation time:	15. 06. 2019 21:22

#	Modifying user name:	WinNT
#	Modification time:	15. 06. 2019 21:22

#	Program:	/corina/corina34_cracker 3.40 0067  02.08.2006

@<TRIPOS>MOLECULE
ASD09720070
  43   45    0    0    0
SMALL
NO_CHARGES


@<TRIPOS>ATOM
   1 C1             0.0650     1.4630     0.4920 C.2     
   2 C2             0.1524     0.0351     0.8325 C.2     
   3 N3             1.3095    -0.5419     0.9133 N.2     
   4 C4            -1.1041    -0.7569     1.0875 C.3     
   5 O5             2.4901     0.2024     0.6738 O.3     
   6 S6            -0.6674    -2.4723     1.4843 S.3     
   7 C7            -2.2364    -3.2302     1.7463 C.ar    
   8 C8            -2.3123    -4.5775     2.0785 C.ar    
   9 C9            -3.5435    -5.1681     2.2831 C.ar    
  10 C10           -4.7004    -4.4207     2.1572 C.ar    
  11 C11           -4.6287    -3.0797     1.8262 C.ar    
  12 C12           -3.4006    -2.4808     1.6267 C.ar    
  13 C13            1.1023     2.2715     0.0738 C.2     
  14 C14            0.5843     3.5475    -0.1392 C.2     
  15 N15           -0.6967     3.5321     0.1304 N.2     
  16 N16           -1.0592     2.2380     0.5243 N.pl3   
  17 C17           -2.4015     1.7971     0.9115 C.3     
  18 C18           -2.6527     2.1139     2.3962 C.3     
  19 C19           -3.8601     3.0729     2.4440 C.3     
  20 C20           -4.6165     2.7976     1.1207 C.3     
  21 C21           -3.4651     2.5745     0.1089 C.3     
  22 C22            1.3694     4.7475    -0.6027 C.3     
  23 F23            1.3529     4.8041    -2.0004 F       
  24 F24            0.7933     5.9112    -0.0820 F       
  25 F25            2.6909     4.6411    -0.1558 F       
  26 H26           -1.6472    -0.3174     1.9241 H       
  27 H27           -1.7321    -0.7386     0.1968 H       
  28 H28            3.3038    -0.3133     0.7571 H       
  29 H29           -1.4094    -5.1620     2.1763 H       
  30 H30           -3.6033    -6.2151     2.5413 H       
  31 H31           -5.6621    -4.8853     2.3174 H       
  32 H32           -5.5341    -2.4992     1.7284 H       
  33 H33           -3.3454    -1.4337     1.3682 H       
  34 H34            2.1302     1.9699    -0.0631 H       
  35 H35           -2.5081     0.7268     0.7349 H       
  36 H36           -2.8819     1.1975     2.9400 H       
  37 H37           -1.7758     2.5958     2.8286 H       
  38 H38           -4.4945     2.8450     3.3006 H       
  39 H39           -3.5232     4.1088     2.4825 H       
  40 H40           -5.2334     1.9031     1.2073 H       
  41 H41           -5.2206     3.6586     0.8348 H       
  42 H42           -3.0645     3.5300    -0.2297 H       
  43 H43           -3.8113     1.9830    -0.7386 H       
@<TRIPOS>BOND
   1    1    2 1
   2    1   13 2
   3    1   16 1
   4    2    3 2
   5    2    4 1
   6    3    5 1
   7    4    6 1
   8    4   26 1
   9    4   27 1
  10    5   28 1
  11    6    7 1
  12    7    8 ar
  13    7   12 ar
  14    8    9 ar
  15    8   29 1
  16    9   10 ar
  17    9   30 1
  18   10   11 ar
  19   10   31 1
  20   11   12 ar
  21   11   32 1
  22   12   33 1
  23   13   14 1
  24   13   34 1
  25   14   15 2
  26   14   22 1
  27   15   16 1
  28   16   17 1
  29   17   18 1
  30   17   21 1
  31   17   35 1
  32   18   19 1
  33   18   36 1
  34   18   37 1
  35   19   20 1
  36   19   38 1
  37   19   39 1
  38   20   21 1
  39   20   40 1
  40   20   41 1
  41   21   42 1
  42   21   43 1
  43   22   23 1
  44   22   24 1
  45   22   25 1

#	End of record

