#	Name: ASD01150337
#	Creating user name:	WinNT
#	Creation time:	15. 06. 2019 19:04

#	Modifying user name:	WinNT
#	Modification time:	15. 06. 2019 19:04

#	Program:	/corina/corina34_cracker 3.40 0067  02.08.2006

@<TRIPOS>MOLECULE
ASD01150337
  68   70    0    0    0
SMALL
NO_CHARGES


@<TRIPOS>ATOM
   1 N1            -0.5689     1.8666     1.6982 N.pl3   
   2 C2            -0.3965     0.4956     1.4937 C.2     
   3 C3            -1.6576    -0.0096     1.2020 C.2     
   4 N4            -2.5222     1.0084     1.2336 N.2     
   5 C5            -1.8931     2.1259     1.5313 C.2     
   6 C6             0.8107    -0.2278     1.5676 C.2     
   7 C7             0.4297     2.7950     2.0196 C.ar    
   8 C8             0.7526     3.8070     1.1254 C.ar    
   9 C9             1.7377     4.7207     1.4451 C.ar    
  10 C10            2.4025     4.6283     2.6541 C.ar    
  11 C11            2.0835     3.6213     3.5466 C.ar    
  12 C12            1.0948     2.7085     3.2355 C.ar    
  13 N13           -2.4822     3.3638     1.6475 N.3     
  14 C14           -3.9269     3.2852     1.3934 C.3     
  15 C15           -2.2107     3.9544     2.9649 C.3     
  16 O16            0.8145    -1.4286     1.3645 O.2     
  17 O17            1.9634     0.4105     1.8637 O.3     
  18 C18            3.1490    -0.3850     1.9219 C.3     
  19 C19            3.3843    -1.0497     0.5641 C.3     
  20 C20            4.3442     0.5056     2.2677 C.3     
  21 C21            2.9881    -1.4624     2.9962 C.3     
  22 N22           -1.9646    -1.3363     0.9263 N.am    
  23 C23           -3.2366    -1.6921     0.6583 C.2     
  24 O24           -4.1293    -0.8707     0.7470 O.2     
  25 C25           -3.5453    -3.0737     0.2584 C.2     
  26 C26           -2.6375    -4.0863    -0.0008 C.2     
  27 C27           -3.4111    -5.1990    -0.3385 C.2     
  28 N28           -4.6699    -4.8466    -0.2764 N.2     
  29 N29           -4.7854    -3.6164     0.0742 N.pl3   
  30 C30           -2.8889    -6.5632    -0.7090 C.3     
  31 C31           -6.0532    -2.9014     0.2408 C.3     
  32 C32           -7.2170    -3.8571    -0.0292 C.3     
  33 C33           -6.1532    -2.3672     1.6711 C.3     
  34 C34           -6.1132    -1.7331    -0.7453 C.3     
  35 H35            0.2343     3.8793     0.1807 H       
  36 H36            1.9893     5.5081     0.7500 H       
  37 H37            3.1726     5.3438     2.9017 H       
  38 H38            2.6047     3.5515     4.4899 H       
  39 H39            0.8461     1.9223     3.9329 H       
  40 H40           -4.3866     2.6102     2.1153 H       
  41 H41           -4.3676     4.2773     1.4918 H       
  42 H42           -4.0985     2.9098     0.3846 H       
  43 H43           -1.1346     4.0655     3.0985 H       
  44 H44           -2.6878     4.9323     3.0299 H       
  45 H45           -2.6083     3.3037     3.7437 H       
  46 H46            3.4990    -0.2821    -0.2012 H       
  47 H47            4.2888    -1.6565     0.6085 H       
  48 H48            2.5329    -1.6841     0.3178 H       
  49 H49            4.1765     0.9791     3.2351 H       
  50 H50            5.2486    -0.1012     2.3121 H       
  51 H51            4.4588     1.2731     1.5024 H       
  52 H52            2.1367    -2.0968     2.7499 H       
  53 H53            3.8925    -2.0692     3.0406 H       
  54 H54            2.8205    -0.9888     3.9635 H       
  55 H55           -1.2634    -2.0066     0.9267 H       
  56 H56           -1.5602    -4.0281     0.0478 H       
  57 H57           -2.7922    -7.1717     0.1901 H       
  58 H58           -3.5828    -7.0426    -1.3994 H       
  59 H59           -1.9139    -6.4618    -1.1858 H       
  60 H60           -7.1742    -4.6894     0.6733 H       
  61 H61           -8.1603    -3.3251     0.0947 H       
  62 H62           -7.1457    -4.2376    -1.0482 H       
  63 H63           -5.3659    -1.6327     1.8405 H       
  64 H64           -7.1260    -1.8972     1.8161 H       
  65 H65           -6.0392    -3.1911     2.3755 H       
  66 H66           -6.2810    -2.1157    -1.7521 H       
  67 H67           -6.9301    -1.0663    -0.4692 H       
  68 H68           -5.1714    -1.1850    -0.7171 H       
@<TRIPOS>BOND
   1    1    2 1
   2    1    7 1
   3    1    5 1
   4    2    3 2
   5    2    6 1
   6    3    4 1
   7    3   22 1
   8    4    5 2
   9    5   13 1
  10    6   16 2
  11    6   17 1
  12    7    8 ar
  13    7   12 ar
  14    8    9 ar
  15    8   35 1
  16    9   10 ar
  17    9   36 1
  18   10   11 ar
  19   10   37 1
  20   11   12 ar
  21   11   38 1
  22   12   39 1
  23   13   14 1
  24   13   15 1
  25   14   40 1
  26   14   41 1
  27   14   42 1
  28   15   43 1
  29   15   44 1
  30   15   45 1
  31   17   18 1
  32   18   19 1
  33   18   20 1
  34   18   21 1
  35   19   46 1
  36   19   47 1
  37   19   48 1
  38   20   49 1
  39   20   50 1
  40   20   51 1
  41   21   52 1
  42   21   53 1
  43   21   54 1
  44   22   23 am
  45   22   55 1
  46   23   24 2
  47   23   25 1
  48   25   26 2
  49   25   29 1
  50   26   27 1
  51   26   56 1
  52   27   28 2
  53   27   30 1
  54   28   29 1
  55   29   31 1
  56   30   57 1
  57   30   58 1
  58   30   59 1
  59   31   32 1
  60   31   33 1
  61   31   34 1
  62   32   60 1
  63   32   61 1
  64   32   62 1
  65   33   63 1
  66   33   64 1
  67   33   65 1
  68   34   66 1
  69   34   67 1
  70   34   68 1

#	End of record

