#	Name: ASD04882085
#	Creating user name:	WinNT
#	Creation time:	15. 06. 2019 20:54

#	Modifying user name:	WinNT
#	Modification time:	15. 06. 2019 20:54

#	Program:	/corina/corina34_cracker 3.40 0067  02.08.2006

@<TRIPOS>MOLECULE
ASD04882085
  76   80    0    0    0
SMALL
NO_CHARGES


@<TRIPOS>ATOM
   1 C1             2.1944     1.8435    -0.7938 C.ar    
   2 C2             2.2343     0.4661    -0.7045 C.ar    
   3 C3             1.0549    -0.2534    -0.5581 C.ar    
   4 C4            -0.1609     0.4159    -0.5021 C.ar    
   5 C5            -0.1936     1.7938    -0.5921 C.ar    
   6 C6             0.9820     2.5068    -0.7377 C.ar    
   7 C7            -1.4428    -0.3604    -0.3439 C.3     
   8 N8             1.0916    -1.6468    -0.4679 N.3     
   9 C9             0.6811    -2.0990     0.8687 C.3     
  10 C10            2.4252    -2.1616    -0.8084 C.3     
  11 C11            2.4023    -3.6916    -0.7752 C.3     
  12 N12            1.9918    -4.1438     0.5615 N.3     
  13 C13            0.6582    -3.6290     0.9020 C.3     
  14 C14            2.0284    -5.5329     0.6514 C.ar    
  15 C15            1.2416    -6.3041    -0.1958 C.ar    
  16 C16            2.8609    -6.1500     1.5898 C.ar    
  17 C17            2.8971    -7.5283     1.6788 C.ar    
  18 C18            2.1002    -8.3017     0.8293 C.ar    
  19 C19            1.2747    -7.6787    -0.1103 C.ar    
  20 N20            3.6584    -5.3712     2.4390 N.am    
  21 C21            3.9165    -5.7910     3.6935 C.2     
  22 C22            4.6597    -4.9219     4.6231 C.2     
  23 O23            3.5360    -6.8871     4.0583 O.2     
  24 C24            5.1665    -3.6647     4.4003 C.2     
  25 O25            5.7545    -3.2896     5.5386 O.3     
  26 N26            5.6804    -4.1229     6.4080 N.2     
  27 C27            5.0365    -5.1840     6.0208 C.2     
  28 C28            2.1359    -9.7737     0.9204 C.2     
  29 O29            2.8587   -10.3152     1.7346 O.2     
  30 N30            1.3674   -10.5184     0.1010 N.am    
  31 C31            1.4028   -11.9802     0.1914 C.3     
  32 C32            0.4453   -12.5784    -0.8411 C.3     
  33 C33            0.4823   -14.1050    -0.7466 C.3     
  34 N34           -0.4346   -14.6778    -1.7353 N.am    
  35 C35           -0.0565   -15.0303    -3.1089 C.3     
  36 C36           -1.3878   -15.1689    -3.8801 C.3     
  37 C37           -2.3754   -15.5209    -2.7436 C.3     
  38 C38           -1.7289   -14.9534    -1.4991 C.2     
  39 O39           -2.2975   -14.7673    -0.4442 O.2     
  40 C40            4.7473    -6.4230     6.8284 C.3     
  41 H41            3.1112     2.4037    -0.9030 H       
  42 H42            3.1813    -0.0513    -0.7487 H       
  43 H43           -1.1386     2.3149    -0.5486 H       
  44 H44            0.9537     3.5842    -0.8074 H       
  45 H45           -1.6323    -0.5371     0.7148 H       
  46 H46           -2.2679     0.2099    -0.7705 H       
  47 H47           -1.3554    -1.3156    -0.8617 H       
  48 H48            1.3889    -1.7297     1.6108 H       
  49 H49           -0.3143    -1.7154     1.0926 H       
  50 H50            2.7014    -1.8237    -1.8072 H       
  51 H51            3.1528    -1.7930    -0.0854 H       
  52 H52            1.6945    -4.0609    -1.5173 H       
  53 H53            3.3977    -4.0751    -0.9991 H       
  54 H54            0.3820    -3.9669     1.9008 H       
  55 H55           -0.0694    -3.9976     0.1789 H       
  56 H56            0.6025    -5.8247    -0.9225 H       
  57 H57            3.5397    -8.0072     2.4027 H       
  58 H58            0.6587    -8.2751    -0.7670 H       
  59 H59            4.0246    -4.5301     2.1241 H       
  60 H60            5.1022    -3.0935     3.4859 H       
  61 H61            0.7909   -10.0865    -0.5485 H       
  62 H62            2.4155   -12.3320    -0.0055 H       
  63 H63            1.0987   -12.2898     1.1913 H       
  64 H64           -0.5674   -12.2266    -0.6441 H       
  65 H65            0.7494   -12.2687    -1.8409 H       
  66 H66            1.4950   -14.4568    -0.9436 H       
  67 H67            0.1781   -14.4147     0.2532 H       
  68 H68            0.5527   -14.2397    -3.5470 H       
  69 H69            0.4861   -15.9756    -3.1200 H       
  70 H70           -1.6618   -14.2281    -4.3576 H       
  71 H71           -1.3324   -15.9745    -4.6123 H       
  72 H72           -3.3437   -15.0529    -2.9211 H       
  73 H73           -2.4838   -16.6017    -2.6536 H       
  74 H74            3.7961    -6.3047     7.3472 H       
  75 H75            4.6940    -7.2855     6.1640 H       
  76 H76            5.5427    -6.5750     7.5580 H       
@<TRIPOS>BOND
   1    1    2 ar
   2    1    6 ar
   3    1   41 1
   4    2    3 ar
   5    2   42 1
   6    3    4 ar
   7    3    8 1
   8    4    5 ar
   9    4    7 1
  10    5    6 ar
  11    5   43 1
  12    6   44 1
  13    7   45 1
  14    7   46 1
  15    7   47 1
  16    8    9 1
  17    8   10 1
  18    9   13 1
  19    9   48 1
  20    9   49 1
  21   10   11 1
  22   10   50 1
  23   10   51 1
  24   11   12 1
  25   11   52 1
  26   11   53 1
  27   12   13 1
  28   12   14 1
  29   13   54 1
  30   13   55 1
  31   14   15 ar
  32   14   16 ar
  33   15   19 ar
  34   15   56 1
  35   16   17 ar
  36   16   20 1
  37   17   18 ar
  38   17   57 1
  39   18   19 ar
  40   18   28 1
  41   19   58 1
  42   20   21 am
  43   20   59 1
  44   21   22 1
  45   21   23 2
  46   22   24 2
  47   22   27 1
  48   24   25 1
  49   24   60 1
  50   25   26 1
  51   26   27 2
  52   27   40 1
  53   28   29 2
  54   28   30 am
  55   30   31 1
  56   30   61 1
  57   31   32 1
  58   31   62 1
  59   31   63 1
  60   32   33 1
  61   32   64 1
  62   32   65 1
  63   33   34 1
  64   33   66 1
  65   33   67 1
  66   34   35 1
  67   34   38 am
  68   35   36 1
  69   35   68 1
  70   35   69 1
  71   36   37 1
  72   36   70 1
  73   36   71 1
  74   37   38 1
  75   37   72 1
  76   37   73 1
  77   38   39 2
  78   40   74 1
  79   40   75 1
  80   40   76 1

#	End of record

