#	Name: ASD03090865
#	Creating user name:	WinNT
#	Creation time:	15. 06. 2019 20:29

#	Modifying user name:	WinNT
#	Modification time:	15. 06. 2019 20:29

#	Program:	/corina/corina34_cracker 3.40 0067  02.08.2006

@<TRIPOS>MOLECULE
ASD03090865
  46   49    0    0    0
SMALL
NO_CHARGES


@<TRIPOS>ATOM
   1 N1            -0.0190     1.4715    -0.0917 N.am    
   2 C2             0.0007    -0.0022    -0.1267 C.3     
   3 C3             1.3854    -0.3940     0.4467 C.3     
   4 C4             2.2902     0.7258    -0.1319 C.3     
   5 C5             1.3668     1.9621    -0.1102 C.3     
   6 C6            -1.1245     2.2416    -0.0549 C.2     
   7 O7            -2.2279     1.7239    -0.0483 O.2     
   8 N8            -1.0108     3.5725    -0.0256 N.2     
   9 C9             1.6022     2.8094    -1.3622 C.3     
  10 C10           -1.1182    -0.5706     0.7485 C.3     
  11 S11           -3.7399     3.7999     0.0267 S.3     
  12 C12           -2.1025     4.3330     0.0108 C.2     
  13 N13           -2.1550     5.6886     0.0435 N.pl3   
  14 C14           -3.3921     6.2565     0.0783 C.2     
  15 C15           -4.4303     5.4311     0.0769 C.2     
  16 C16           -5.8904     5.8025     0.1114 C.3     
  17 O17            2.2838     8.9704     0.0179 O.3     
  18 C18            1.6020    10.2023     0.3191 C.3     
  19 O19            0.2568     9.9697    -0.1383 O.3     
  20 C20            0.0718     8.6197    -0.0557 C.ar    
  21 C21            1.3183     8.0046     0.0404 C.ar    
  22 C22           -1.0791     7.8504    -0.0548 C.ar    
  23 C23           -0.9897     6.4682     0.0421 C.ar    
  24 C24            0.2535     5.8582     0.1379 C.ar    
  25 C25            1.4031     6.6253     0.1375 C.ar    
  26 F26            1.6173    10.4486     1.6962 F       
  27 F27            2.1811    11.2678    -0.3785 F       
  28 H28           -0.1002    -0.3587    -1.1518 H       
  29 H29            1.3789    -0.3671     1.5363 H       
  30 H30            1.6957    -1.3737     0.0834 H       
  31 H31            3.1617     0.8842     0.5034 H       
  32 H32            2.5931     0.4885    -1.1517 H       
  33 H33            1.5621     2.5550     0.7833 H       
  34 H34            0.9198     3.6593    -1.3593 H       
  35 H35            2.6310     3.1694    -1.3692 H       
  36 H36            1.4235     2.2030    -2.2502 H       
  37 H37           -2.0819    -0.2193     0.3798 H       
  38 H38           -1.0903    -1.6596     0.7122 H       
  39 H39           -0.9795    -0.2377     1.7772 H       
  40 H40           -3.5217     7.3284     0.1057 H       
  41 H41           -6.4962     4.8963     0.1014 H       
  42 H42           -6.0998     6.3695     1.0185 H       
  43 H43           -6.1314     6.4102    -0.7607 H       
  44 H44           -2.0463     8.3252    -0.1288 H       
  45 H45            0.3224     4.7831     0.2132 H       
  46 H46            2.3693     6.1485     0.2117 H       
@<TRIPOS>BOND
   1    1    2 1
   2    1    5 1
   3    1    6 am
   4    2    3 1
   5    2   10 1
   6    2   28 1
   7    3    4 1
   8    3   29 1
   9    3   30 1
  10    4    5 1
  11    4   31 1
  12    4   32 1
  13    5    9 1
  14    5   33 1
  15    6    7 2
  16    6    8 1
  17    8   12 2
  18    9   34 1
  19    9   35 1
  20    9   36 1
  21   10   37 1
  22   10   38 1
  23   10   39 1
  24   11   12 1
  25   11   15 1
  26   12   13 1
  27   13   14 1
  28   13   23 1
  29   14   15 2
  30   14   40 1
  31   15   16 1
  32   16   41 1
  33   16   42 1
  34   16   43 1
  35   17   18 1
  36   17   21 1
  37   18   19 1
  38   18   26 1
  39   18   27 1
  40   19   20 1
  41   20   21 ar
  42   20   22 ar
  43   21   25 ar
  44   22   23 ar
  45   22   44 1
  46   23   24 ar
  47   24   25 ar
  48   24   45 1
  49   25   46 1

#	End of record

