#	Name: ASD01410423
#	Creating user name:	WinNT
#	Creation time:	15. 06. 2019 19:17

#	Modifying user name:	WinNT
#	Modification time:	15. 06. 2019 19:17

#	Program:	/corina/corina34_cracker 3.40 0067  02.08.2006

@<TRIPOS>MOLECULE
ASD01410423
 121  128    0    0    0
SMALL
NO_CHARGES


@<TRIPOS>ATOM
   1 C1             6.8715     1.8775     5.4568 C.3     
   2 C2             5.5745     1.0750     5.2255 C.3     
   3 C3             5.3989     0.9531     3.7017 C.3     
   4 C4             6.5953     1.6858     3.0602 C.3     
   5 C5             7.6877     1.6630     4.1580 C.3     
   6 O6             7.0494     0.9779     1.8766 O.3     
   7 C7             7.6016     1.7174     0.8963 C.2     
   8 O8             7.7013     2.9214     1.0263 O.2     
   9 N9             8.0438     1.1222    -0.2292 N.am    
  10 C10            8.5436     1.9358    -1.3403 C.3     
  11 C11            8.4836     1.1364    -2.6151 C.2     
  12 O12            9.5128     0.8008    -3.1619 O.2     
  13 C13            9.9932     2.3419    -1.0641 C.3     
  14 N14            7.3006     0.7903    -3.1536 N.am    
  15 C15            7.1307     0.0643    -4.4164 C.3     
  16 C16            5.7012     0.3230    -4.9128 C.3     
  17 C17            4.9389     0.8796    -3.7000 C.3     
  18 C18            5.9798     1.0760    -2.5893 C.3     
  19 C19           10.6480     2.8140    -2.3635 C.3     
  20 C20           12.1139     2.3742    -2.3841 C.3     
  21 C21           12.7673     2.8422    -3.6870 C.3     
  22 C22           13.0022     1.6355    -4.5984 C.3     
  23 C23           12.2236     1.8195    -5.9014 C.3     
  24 C24           12.4792     0.6292    -6.8281 C.3     
  25 O25            3.9402    -0.0513    -3.2781 O.3     
  26 C26            2.8964     0.4450    -2.5687 C.ar    
  27 C27            2.7781     1.7902    -2.3400 C.ar    
  28 C28            1.6903     2.2782    -1.6040 C.ar    
  29 N29            0.7648     1.4685    -1.1190 N.ar    
  30 C30            0.8270     0.1459    -1.3102 C.ar    
  31 C31            1.8974    -0.4127    -2.0503 C.ar    
  32 C32           -0.1630    -0.7049    -0.7897 C.ar    
  33 C33           -0.0733    -2.0628    -1.0021 C.ar    
  34 C34            0.9909    -2.6031    -1.7291 C.ar    
  35 C35            1.9590    -1.7994    -2.2490 C.ar    
  36 Cl36          -1.4906    -0.0484     0.1159 Cl      
  37 O37           -1.0299    -2.8861    -0.4988 O.3     
  38 C38           -0.8813    -4.2845    -0.7527 C.3     
  39 C39            1.5749     3.7346    -1.3636 C.2     
  40 N40            2.4717     4.6075    -1.8234 N.2     
  41 C41            2.2655     5.8579    -1.5505 C.2     
  42 S42            0.7868     6.0174    -0.6080 S.3     
  43 C43            0.5545     4.2720    -0.6702 C.2     
  44 N44            3.0826     6.9065    -1.9398 N.pl3   
  45 C45            2.7385     8.2808    -1.5665 C.3     
  46 C46            4.0078     9.1346    -1.5385 C.3     
  47 C47            1.7586     8.8572    -2.5904 C.3     
  48 C48            8.1298     0.5728    -5.4202 C.2     
  49 O49            8.3448     1.7626    -5.5158 O.2     
  50 N50            8.7911    -0.3067    -6.2198 N.am    
  51 C51           11.2905    -0.3301    -6.7645 C.3     
  52 C52           10.5499    -0.6479    -8.0663 C.3     
  53 C53            9.8987     0.2545    -7.0182 C.3     
  54 P54            9.7774     2.0344    -7.3774 P.3     
  55 O55            9.9112     2.8019    -6.1190 O.2     
  56 O56           10.9531     2.4585    -8.3923 O.3     
  57 C57            8.1597     2.3919    -8.1381 C.3     
  58 C58            8.0219     3.8775    -8.3507 C.ar    
  59 C59            8.4462     4.4496    -9.5376 C.ar    
  60 C60            8.3192     5.8147    -9.7318 C.ar    
  61 C61            7.7689     6.6060    -8.7412 C.ar    
  62 C62            7.3453     6.0359    -7.5556 C.ar    
  63 C63            7.4657     4.6701    -7.3616 C.ar    
  64 F64            7.0511     4.1130    -6.2027 F       
  65 F65            8.9846     3.6764   -10.5059 F       
  66 H66            6.6463     2.9349     5.5955 H       
  67 H67            7.4141     1.4860     6.3173 H       
  68 H68            5.6638     0.0844     5.6715 H       
  69 H69            4.7256     1.6046     5.6580 H       
  70 H70            5.4029    -0.0966     3.4081 H       
  71 H71            4.4648     1.4236     3.3947 H       
  72 H72            6.3255     2.7123     2.8118 H       
  73 H73            8.4002     2.4747     4.0109 H       
  74 H74            8.1968     0.6993     4.1764 H       
  75 H75            8.0311     0.1551    -0.3035 H       
  76 H76            7.9282     2.8296    -1.4421 H       
  77 H77           10.0109     3.1508    -0.3338 H       
  78 H78           10.5417     1.4859    -0.6712 H       
  79 H79            7.2762    -1.0026    -4.2523 H       
  80 H80            5.7095     1.0544    -5.7210 H       
  81 H81            5.2451    -0.6078    -5.2499 H       
  82 H82            4.4771     1.8338    -3.9536 H       
  83 H83            5.7744     0.3917    -1.7661 H       
  84 H84            5.9466     2.1047    -2.2304 H       
  85 H85           10.1252     2.3761    -3.2139 H       
  86 H86           10.5938     3.9010    -2.4238 H       
  87 H87           12.6377     2.8151    -1.5360 H       
  88 H88           12.1683     1.2874    -2.3202 H       
  89 H89           12.1110     3.5540    -4.1877 H       
  90 H90           13.7210     3.3208    -3.4641 H       
  91 H91           14.0659     1.5495    -4.8201 H       
  92 H92           12.6616     0.7298    -4.0967 H       
  93 H93           11.1582     1.8852    -5.6809 H       
  94 H94           12.5489     2.7371    -6.3916 H       
  95 H95           12.6045     0.9852    -7.8507 H       
  96 H96           13.3831     0.1093    -6.5110 H       
  97 H97            3.5213     2.4726    -2.7253 H       
  98 H98            1.0434    -3.6706    -1.8844 H       
  99 H99            2.7760    -2.2298    -2.8089 H       
 100 H100          -0.8799    -4.4604    -1.8284 H       
 101 H101           0.0593    -4.6333    -0.3263 H       
 102 H102          -1.7099    -4.8266    -0.2970 H       
 103 H103          -0.2639     3.7265    -0.2242 H       
 104 H104           3.8825     6.7309    -2.4595 H       
 105 H105           2.2764     8.2843    -0.5793 H       
 106 H106           4.4699     9.1311    -2.5257 H       
 107 H107           3.7518    10.1571    -1.2608 H       
 108 H108           4.7059     8.7239    -0.8090 H       
 109 H109           2.2207     8.8537    -3.5776 H       
 110 H110           0.8543     8.2489    -2.6104 H       
 111 H111           1.5026     9.8797    -2.3127 H       
 112 H112           8.5499    -1.2452    -6.2625 H       
 113 H113          11.3686    -1.1257    -6.0226 H       
 114 H114          10.9137    -0.1779    -8.9799 H       
 115 H115          10.1470    -1.6540    -8.1834 H       
 116 H116          10.9275     1.9939    -9.2400 H       
 117 H117           8.0880     1.8794    -9.0974 H       
 118 H118           7.3637     2.0438    -7.4798 H       
 119 H119           8.6505     6.2614   -10.6576 H       
 120 H120           7.6702     7.6706    -8.8936 H       
 121 H121           6.9161     6.6553    -6.7819 H       
@<TRIPOS>BOND
   1    1    2 1
   2    1    5 1
   3    1   66 1
   4    1   67 1
   5    2    3 1
   6    2   68 1
   7    2   69 1
   8    3    4 1
   9    3   70 1
  10    3   71 1
  11    4    5 1
  12    4    6 1
  13    4   72 1
  14    5   73 1
  15    5   74 1
  16    6    7 1
  17    7    8 2
  18    7    9 am
  19    9   10 1
  20    9   75 1
  21   10   11 1
  22   10   13 1
  23   10   76 1
  24   11   12 2
  25   11   14 am
  26   13   19 1
  27   13   77 1
  28   13   78 1
  29   14   15 1
  30   14   18 1
  31   15   16 1
  32   15   48 1
  33   15   79 1
  34   16   17 1
  35   16   80 1
  36   16   81 1
  37   17   18 1
  38   17   25 1
  39   17   82 1
  40   18   83 1
  41   18   84 1
  42   19   20 1
  43   19   85 1
  44   19   86 1
  45   20   21 1
  46   20   87 1
  47   20   88 1
  48   21   22 1
  49   21   89 1
  50   21   90 1
  51   22   23 1
  52   22   91 1
  53   22   92 1
  54   23   24 1
  55   23   93 1
  56   23   94 1
  57   24   51 1
  58   24   95 1
  59   24   96 1
  60   25   26 1
  61   26   27 ar
  62   26   31 ar
  63   27   28 ar
  64   27   97 1
  65   28   29 ar
  66   28   39 1
  67   29   30 ar
  68   30   31 ar
  69   30   32 ar
  70   31   35 ar
  71   32   33 ar
  72   32   36 1
  73   33   34 ar
  74   33   37 1
  75   34   35 ar
  76   34   98 1
  77   35   99 1
  78   37   38 1
  79   38  100 1
  80   38  101 1
  81   38  102 1
  82   39   40 1
  83   39   43 2
  84   40   41 2
  85   41   42 1
  86   41   44 1
  87   42   43 1
  88   43  103 1
  89   44   45 1
  90   44  104 1
  91   45   46 1
  92   45   47 1
  93   45  105 1
  94   46  106 1
  95   46  107 1
  96   46  108 1
  97   47  109 1
  98   47  110 1
  99   47  111 1
 100   48   49 2
 101   48   50 am
 102   50   53 1
 103   50  112 1
 104   51   52 1
 105   51   53 1
 106   51  113 1
 107   52   53 1
 108   52  114 1
 109   52  115 1
 110   53   54 1
 111   54   55 2
 112   54   56 1
 113   54   57 1
 114   56  116 1
 115   57   58 1
 116   57  117 1
 117   57  118 1
 118   58   59 ar
 119   58   63 ar
 120   59   60 ar
 121   59   65 1
 122   60   61 ar
 123   60  119 1
 124   61   62 ar
 125   61  120 1
 126   62   63 ar
 127   62  121 1
 128   63   64 1

#	End of record

