#	Name: ASD01880685
#	Creating user name:	WinNT
#	Creation time:	15. 06. 2019 19:41

#	Modifying user name:	WinNT
#	Modification time:	15. 06. 2019 19:41

#	Program:	/corina/corina34_cracker 3.40 0067  02.08.2006

@<TRIPOS>MOLECULE
ASD01880685
  48   50    0    0    0
SMALL
NO_CHARGES


@<TRIPOS>ATOM
   1 N1            -0.0158     1.3144     0.0093 N.ar    
   2 C2             0.0021    -0.0041     0.0020 C.ar    
   3 N3             1.1324    -0.6835    -0.0120 N.ar    
   4 C4             2.3017    -0.0607    -0.0198 C.ar    
   5 C5             2.3295     1.3213    -0.0131 C.ar    
   6 C6             1.1167     2.0081     0.0022 C.ar    
   7 C7             3.6390     2.0672    -0.0216 C.3     
   8 O8             4.7196     1.1323    -0.0364 O.3     
   9 C9             5.9766     1.6436    -0.0456 C.ar    
  10 C10            7.0746     0.7890    -0.0602 C.ar    
  11 C11            8.3456     1.3075    -0.0699 C.ar    
  12 C12            8.5453     2.6920    -0.0653 C.ar    
  13 C13            7.4390     3.5460    -0.0510 C.ar    
  14 C14            6.1660     3.0204    -0.0462 C.ar    
  15 C15            9.7171     0.6797    -0.0861 C.3     
  16 N16           10.6760     1.7903    -0.0900 N.am    
  17 C17            9.9957     2.9494    -0.0780 C.2     
  18 O18           10.5050     4.0534    -0.0780 O.2     
  19 Br19          -1.6374    -0.9463     0.0126 Br      
  20 C20            7.6387     5.0397    -0.0453 C.3     
  21 C21           -0.0161     5.5099     0.0299 C.3     
  22 C22           -1.3910     6.1810     0.0467 C.3     
  23 C23           12.6294     1.6179    -1.5516 C.3     
  24 C24           12.1349     1.6576    -0.1042 C.3     
  25 O25            1.0935     3.3631     0.0088 O.3     
  26 C26           -0.1906     3.9899     0.0245 C.3     
  27 H27            3.2220    -0.6258    -0.0309 H       
  28 H28            3.6921     2.6980    -0.9089 H       
  29 H29            3.7087     2.6890     0.8709 H       
  30 H30            6.9271    -0.2809    -0.0635 H       
  31 H31            5.3116     3.6809    -0.0356 H       
  32 H32            9.8586     0.0656     0.8033 H       
  33 H33            9.8414     0.0741    -0.9838 H       
  34 H34            7.6776     5.4050    -1.0715 H       
  35 H35            6.8094     5.5151     0.4784 H       
  36 H36            8.5736     5.2793     0.4614 H       
  37 H37            0.5270     5.8165    -0.8640 H       
  38 H38            0.5446     5.8081     0.9158 H       
  39 H39           -1.2667     7.2639     0.0506 H       
  40 H40           -1.9517     5.8828    -0.8391 H       
  41 H41           -1.9340     5.8744     0.9407 H       
  42 H42           13.7149     1.5191    -1.5621 H       
  43 H43           12.1821     0.7668    -2.0651 H       
  44 H44           12.3434     2.5394    -2.0586 H       
  45 H45           12.5822     2.5087     0.4093 H       
  46 H46           12.4209     0.7360     0.4029 H       
  47 H47           -0.7336     3.6833     0.9185 H       
  48 H48           -0.7513     3.6917    -0.8614 H       
@<TRIPOS>BOND
   1    1    2 ar
   2    1    6 ar
   3    2    3 ar
   4    2   19 1
   5    3    4 ar
   6    4    5 ar
   7    4   27 1
   8    5    6 ar
   9    5    7 1
  10    6   25 1
  11    7    8 1
  12    7   28 1
  13    7   29 1
  14    8    9 1
  15    9   10 ar
  16    9   14 ar
  17   10   11 ar
  18   10   30 1
  19   11   12 ar
  20   11   15 1
  21   12   13 ar
  22   12   17 1
  23   13   14 ar
  24   13   20 1
  25   14   31 1
  26   15   16 1
  27   15   32 1
  28   15   33 1
  29   16   17 am
  30   16   24 1
  31   17   18 2
  32   20   34 1
  33   20   35 1
  34   20   36 1
  35   21   22 1
  36   21   26 1
  37   21   37 1
  38   21   38 1
  39   22   39 1
  40   22   40 1
  41   22   41 1
  42   23   24 1
  43   23   42 1
  44   23   43 1
  45   23   44 1
  46   24   45 1
  47   24   46 1
  48   25   26 1
  49   26   47 1
  50   26   48 1

#	End of record

