#	Name: ASD01903202
#	Creating user name:	WinNT
#	Creation time:	15. 06. 2019 19:54

#	Modifying user name:	WinNT
#	Modification time:	15. 06. 2019 19:54

#	Program:	/corina/corina34_cracker 3.40 0067  02.08.2006

@<TRIPOS>MOLECULE
ASD01903202
  26   28    0    0    0
SMALL
NO_CHARGES


@<TRIPOS>ATOM
   1 S1            -0.0242     1.7573    -0.0302 S.3     
   2 C2             0.0013    -0.0032    -0.0097 C.2     
   3 N3             1.2300    -0.4176    -0.0142 N.2     
   4 C4             2.1804     0.5166    -0.0323 C.2     
   5 C5             1.7374     1.7860    -0.0439 C.2     
   6 N6            -1.1203    -0.8210     0.0088 N.pl3   
   7 C7            -2.3891    -0.2599     0.1290 C.ar    
   8 C8             3.6270     0.1792    -0.0393 C.2     
   9 C9             4.6435     0.8895    -0.7063 C.2     
  10 N10            5.7802     0.2868    -0.4750 N.2     
  11 N11            5.5365    -0.8235     0.3425 N.pl3   
  12 C12            4.2122    -0.8713     0.6039 C.2     
  13 N13           -2.5134     1.0425     0.3305 N.ar    
  14 C14           -3.6965     1.6150     0.4496 C.ar    
  15 C15           -4.8565     0.8675     0.3677 C.ar    
  16 C16           -4.7682    -0.5040     0.1566 C.ar    
  17 C17           -3.5137    -1.0726     0.0303 C.ar    
  18 F18           -6.0628     1.4630     0.4919 F       
  19 F19            2.5106     2.8937    -0.0627 F       
  20 H20           -1.0202    -1.7832    -0.0620 H       
  21 H21            4.5075     1.7776    -1.3055 H       
  22 H22            6.2037    -1.4480     0.6677 H       
  23 H23            3.7074    -1.6111     1.2076 H       
  24 H24           -3.7593     2.6806     0.6135 H       
  25 H25           -5.6590    -1.1110     0.0891 H       
  26 H26           -3.4084    -2.1347    -0.1343 H       
@<TRIPOS>BOND
   1    1    2 1
   2    1    5 1
   3    2    3 2
   4    2    6 1
   5    3    4 1
   6    4    5 2
   7    4    8 1
   8    5   19 1
   9    6    7 1
  10    6   20 1
  11    7   13 ar
  12    7   17 ar
  13    8    9 1
  14    8   12 2
  15    9   10 2
  16    9   21 1
  17   10   11 1
  18   11   12 1
  19   11   22 1
  20   12   23 1
  21   13   14 ar
  22   14   15 ar
  23   14   24 1
  24   15   16 ar
  25   15   18 1
  26   16   17 ar
  27   16   25 1
  28   17   26 1

#	End of record

