#	Name: ASD01912078
#	Creating user name:	WinNT
#	Creation time:	15. 06. 2019 19:59

#	Modifying user name:	WinNT
#	Modification time:	15. 06. 2019 19:59

#	Program:	/corina/corina34_cracker 3.40 0067  02.08.2006

@<TRIPOS>MOLECULE
ASD01912078
  55   58    0    0    0
SMALL
NO_CHARGES


@<TRIPOS>ATOM
   1 N1            -0.1067     1.6363    -0.3033 N.am    
   2 C2            -0.2123     0.1732    -0.3937 C.3     
   3 C3            -1.0296    -0.3339     0.8009 C.3     
   4 N4            -2.2622     0.4606     0.8978 N.am    
   5 C5            -2.1566     1.9236     0.9883 C.3     
   6 C6            -1.3391     2.4304    -0.2007 C.3     
   7 C7            -0.9861     3.9042     0.0097 C.3     
   8 C8            -2.1517     2.2720    -1.4874 C.3     
   9 C9             1.0989     2.2386    -0.3086 C.2     
  10 C10            2.3321     1.4245    -0.2652 C.2     
  11 O11            1.1724     3.4513    -0.3491 O.2     
  12 N12            2.3991     0.0837    -0.3593 N.2     
  13 C13            3.6620    -0.2493    -0.2776 C.2     
  14 N14            4.3747     0.8867    -0.1331 N.pl3   
  15 N15            3.5581     1.8835    -0.1336 N.2     
  16 C16            5.7681     0.9694    -0.0088 C.ar    
  17 C17            6.3815     2.2071     0.1348 C.ar    
  18 C18            6.5373    -0.1860    -0.0234 C.ar    
  19 C19            7.9118    -0.1010     0.0994 C.ar    
  20 C20            8.5199     1.1344     0.2370 C.ar    
  21 C21            7.7549     2.2861     0.2570 C.ar    
  22 Cl22           8.8752    -1.5449     0.0814 Cl      
  23 C23           -3.4679    -0.1418     0.9032 C.2     
  24 C24           -3.5574    -1.6204     0.8771 C.ar    
  25 O25           -4.4815     0.5279     0.9296 O.2     
  26 N26           -2.4875    -2.3496     1.1742 N.ar    
  27 C27           -2.5251    -3.6684     1.1626 C.ar    
  28 C28           -3.6970    -4.3448     0.8359 C.ar    
  29 C29           -4.8331    -3.6185     0.5203 C.ar    
  30 C30           -4.7627    -2.2320     0.5470 C.ar    
  31 O31           -1.4083    -4.3736     1.4724 O.3     
  32 C32           -0.2368    -3.6231     1.7986 C.3     
  33 Br33          -6.4468    -4.4957     0.0704 Br      
  34 H34           -0.7132    -0.1007    -1.3223 H       
  35 H35            0.7842    -0.2677    -0.3688 H       
  36 H36           -1.2819    -1.3838     0.6523 H       
  37 H37           -0.4485    -0.2207     1.7162 H       
  38 H38           -3.1531     2.3646     0.9634 H       
  39 H39           -1.6557     2.1975     1.9168 H       
  40 H40           -0.2289     3.9887     0.7892 H       
  41 H41           -0.5987     4.3213    -0.9199 H       
  42 H42           -1.8791     4.4525     0.3096 H       
  43 H43           -3.0728     2.8496    -1.4088 H       
  44 H44           -1.5671     2.6338    -2.3332 H       
  45 H45           -2.3942     1.2199    -1.6368 H       
  46 H46            4.0612    -1.2520    -0.3182 H       
  47 H47            5.7850     3.1073     0.1505 H       
  48 H48            6.0626    -1.1502    -0.1301 H       
  49 H49            9.5937     1.1988     0.3335 H       
  50 H50            8.2322     3.2489     0.3646 H       
  51 H51           -3.7200    -5.4245     0.8282 H       
  52 H52           -5.6305    -1.6357     0.3065 H       
  53 H53            0.0392    -2.9943     0.9521 H       
  54 H54           -0.4374    -2.9958     2.6671 H       
  55 H55            0.5812    -4.3068     2.0254 H       
@<TRIPOS>BOND
   1    1    2 1
   2    1    9 am
   3    1    6 1
   4    2    3 1
   5    2   34 1
   6    2   35 1
   7    3    4 1
   8    3   36 1
   9    3   37 1
  10    4    5 1
  11    4   23 am
  12    5    6 1
  13    5   38 1
  14    5   39 1
  15    6    7 1
  16    6    8 1
  17    7   40 1
  18    7   41 1
  19    7   42 1
  20    8   43 1
  21    8   44 1
  22    8   45 1
  23    9   10 1
  24    9   11 2
  25   10   12 1
  26   10   15 2
  27   12   13 2
  28   13   14 1
  29   13   46 1
  30   14   15 1
  31   14   16 1
  32   16   17 ar
  33   16   18 ar
  34   17   21 ar
  35   17   47 1
  36   18   19 ar
  37   18   48 1
  38   19   20 ar
  39   19   22 1
  40   20   21 ar
  41   20   49 1
  42   21   50 1
  43   23   24 1
  44   23   25 2
  45   24   26 ar
  46   24   30 ar
  47   26   27 ar
  48   27   28 ar
  49   27   31 1
  50   28   29 ar
  51   28   51 1
  52   29   30 ar
  53   29   33 1
  54   30   52 1
  55   31   32 1
  56   32   53 1
  57   32   54 1
  58   32   55 1

#	End of record

