#	Name: ASD06620028
#	Creating user name:	WinNT
#	Creation time:	15. 06. 2019 21:07

#	Modifying user name:	WinNT
#	Modification time:	15. 06. 2019 21:07

#	Program:	/corina/corina34_cracker 3.40 0067  02.08.2006

@<TRIPOS>MOLECULE
ASD06620028
  38   42    0    0    0
SMALL
NO_CHARGES


@<TRIPOS>ATOM
   1 C1            -0.0508     1.3731     0.4588 C.ar    
   2 C2            -0.0103     0.0129     0.2072 C.ar    
   3 C3             1.2327    -0.6241     0.1111 C.ar    
   4 C4             2.3831     0.1375     0.2729 C.ar    
   5 C5             2.2563     1.4896     0.5215 C.ar    
   6 N6             1.0677     2.0585     0.6059 N.ar    
   7 C7            -0.3526    -2.1425    -0.1988 C.2     
   8 N8            -0.9777    -0.9672     0.0081 N.am    
   9 N9             0.9813    -1.9633    -0.1418 N.am    
  10 O10           -0.9086    -3.2050    -0.4052 O.2     
  11 C11           -2.4275    -0.7571     0.0217 C.3     
  12 C12           -3.4434    -0.1948     3.4572 C.2     
  13 C13           -3.6709     0.4672     4.6805 C.2     
  14 C14           -4.2197    -0.2202     5.7180 C.2     
  15 C15           -4.5511    -1.5759     5.5571 C.2     
  16 C16           -4.3272    -2.1966     4.3800 C.2     
  17 N17           -3.7773    -1.5187     3.3304 N.pl3   
  18 N18           -2.9298     0.2112     2.3047 N.2     
  19 C19           -2.9291    -0.8079     1.4419 C.2     
  20 C20           -3.4500    -1.8935     2.0557 C.2     
  21 I21           -3.7051    -3.7951     1.2144 I       
  22 C22            1.9944    -3.0068    -0.3181 C.3     
  23 C23            1.9730    -4.1844     0.6585 C.3     
  24 C24            1.5173    -4.3823    -0.7886 C.3     
  25 H25           -1.0030     1.8776     0.5308 H       
  26 H26            3.3592    -0.3199     0.2058 H       
  27 H27            3.1437     2.0918     0.6493 H       
  28 H28           -2.6576     0.2168    -0.4103 H       
  29 H29           -2.9133    -1.5380    -0.5634 H       
  30 H30           -3.4119     1.5096     4.7930 H       
  31 H31           -4.3994     0.2739     6.6614 H       
  32 H32           -4.9869    -2.1239     6.3794 H       
  33 H33           -4.5854    -3.2392     4.2673 H       
  34 H34            2.9668    -2.6632    -0.6710 H       
  35 H35            2.9313    -4.6157     0.9478 H       
  36 H36            1.2052    -4.1827     1.4322 H       
  37 H37            0.4497    -4.5108    -0.9670 H       
  38 H38            2.1758    -4.9438    -1.4513 H       
@<TRIPOS>BOND
   1    1    2 ar
   2    1    6 ar
   3    1   25 1
   4    2    3 ar
   5    2    8 1
   6    3    4 ar
   7    3    9 1
   8    4    5 ar
   9    4   26 1
  10    5    6 ar
  11    5   27 1
  12    7    8 am
  13    7    9 am
  14    7   10 2
  15    8   11 1
  16    9   22 1
  17   11   19 1
  18   11   28 1
  19   11   29 1
  20   12   13 1
  21   12   17 1
  22   12   18 2
  23   13   14 2
  24   13   30 1
  25   14   15 1
  26   14   31 1
  27   15   16 2
  28   15   32 1
  29   16   17 1
  30   16   33 1
  31   17   20 1
  32   18   19 1
  33   19   20 2
  34   20   21 1
  35   22   23 1
  36   22   24 1
  37   22   34 1
  38   23   24 1
  39   23   35 1
  40   23   36 1
  41   24   37 1
  42   24   38 1

#	End of record

