#	Name: ASD08150644
#	Creating user name:	WinNT
#	Creation time:	15. 06. 2019 21:16

#	Modifying user name:	WinNT
#	Modification time:	15. 06. 2019 21:16

#	Program:	/corina/corina34_cracker 3.40 0067  02.08.2006

@<TRIPOS>MOLECULE
ASD08150644
  64   69    0    0    0
SMALL
NO_CHARGES


@<TRIPOS>ATOM
   1 N1            -0.4388     0.9399    -1.4864 N.am    
   2 C2            -0.6271    -0.1613    -2.2392 C.2     
   3 C3             0.4253    -1.0712    -2.4664 C.2     
   4 C4             1.6501    -0.8480    -1.9254 C.2     
   5 C5             1.8517     0.3095    -1.1330 C.ar    
   6 C6             3.1022     0.5887    -0.5491 C.ar    
   7 N7             3.2853     1.6573     0.1815 N.ar    
   8 C8             2.3049     2.5427     0.4163 C.ar    
   9 C9             1.0141     2.3426    -0.1317 C.ar    
  10 C10            0.7828     1.1954    -0.9267 C.ar    
  11 C11           -0.0011     3.2706     0.1201 C.ar    
  12 C12            0.2679     4.3795     0.9057 C.ar    
  13 C13            1.5479     4.5711     1.4443 C.ar    
  14 C14            2.5455     3.6774     1.2084 C.ar    
  15 O15           -1.7227    -0.3741    -2.7302 O.2     
  16 C16           -0.8032     5.3688     1.1779 C.ar    
  17 C17           -1.4996     1.8322    -1.2802 C.ar    
  18 C18           -1.6363     2.9638    -2.0837 C.ar    
  19 C19           -2.6975     3.8166    -1.8448 C.ar    
  20 C20           -3.5881     3.5199    -0.8177 C.ar    
  21 N21           -3.4273     2.4362    -0.0746 N.ar    
  22 C22           -2.4293     1.5977    -0.2786 C.ar    
  23 N23           -4.6594     4.3719    -0.5686 N.3     
  24 C24           -0.5097     6.5708     1.8308 C.ar    
  25 C25           -1.5407     7.4615     2.0617 C.ar    
  26 C26           -2.8250     7.1370     1.6415 C.ar    
  27 N27           -3.0697     5.9912     1.0267 N.ar    
  28 C28           -2.1143     5.1171     0.7820 C.ar    
  29 C29           -5.6329     3.7437     0.3363 C.3     
  30 C30           -6.7619     4.7350     0.6304 C.3     
  31 O31           -7.3576     5.1505    -0.6017 O.3     
  32 C32           -6.4379     5.7672    -1.5067 C.3     
  33 C33           -5.3056     4.7863    -1.8224 C.3     
  34 C34           -7.8189     4.0603     1.5069 C.3     
  35 C35           -7.1659     6.1403    -2.7997 C.3     
  36 O36           -3.8418     8.0068     1.8650 O.3     
  37 C37           -5.1567     7.5722     1.5122 C.3     
  38 H38            0.2564    -1.9490    -3.0725 H       
  39 H39            2.4592    -1.5427    -2.0962 H       
  40 H40            3.9251    -0.0926    -0.7074 H       
  41 H41           -0.9873     3.1241    -0.2950 H       
  42 H42            1.7445     5.4403     2.0546 H       
  43 H43            3.5256     3.8404     1.6319 H       
  44 H44           -0.9293     3.1693    -2.8739 H       
  45 H45           -2.8335     4.7024    -2.4475 H       
  46 H46           -2.3328     0.7210     0.3446 H       
  47 H47            0.4979     6.7970     2.1469 H       
  48 H48           -1.3507     8.3988     2.5634 H       
  49 H49           -2.3522     4.1923     0.2775 H       
  50 H50           -6.0454     2.8517    -0.1353 H       
  51 H51           -5.1387     3.4681     1.2680 H       
  52 H52           -6.3575     5.6035     1.1502 H       
  53 H53           -6.0240     6.6657    -1.0490 H       
  54 H54           -4.5725     5.2718    -2.4665 H       
  55 H55           -5.7128     3.9110    -2.3285 H       
  56 H56           -7.3859     3.8195     2.4778 H       
  57 H57           -8.6633     4.7360     1.6431 H       
  58 H58           -8.1605     3.1446     1.0243 H       
  59 H59           -7.9744     6.8356    -2.5737 H       
  60 H60           -6.4645     6.6102    -3.4890 H       
  61 H61           -7.5776     5.2408    -3.2573 H       
  62 H62           -5.2015     7.3839     0.4395 H       
  63 H63           -5.3935     6.6555     2.0522 H       
  64 H64           -5.8779     8.3458     1.7757 H       
@<TRIPOS>BOND
   1    1    2 am
   2    1   10 1
   3    1   17 1
   4    2    3 1
   5    2   15 2
   6    3    4 2
   7    3   38 1
   8    4    5 1
   9    4   39 1
  10    5    6 ar
  11    5   10 ar
  12    6    7 ar
  13    6   40 1
  14    7    8 ar
  15    8    9 ar
  16    8   14 ar
  17    9   10 ar
  18    9   11 ar
  19   11   12 ar
  20   11   41 1
  21   12   13 ar
  22   12   16 1
  23   13   14 ar
  24   13   42 1
  25   14   43 1
  26   16   24 ar
  27   16   28 ar
  28   17   18 ar
  29   17   22 ar
  30   18   19 ar
  31   18   44 1
  32   19   20 ar
  33   19   45 1
  34   20   21 ar
  35   20   23 1
  36   21   22 ar
  37   22   46 1
  38   23   29 1
  39   23   33 1
  40   24   25 ar
  41   24   47 1
  42   25   26 ar
  43   25   48 1
  44   26   27 ar
  45   26   36 1
  46   27   28 ar
  47   28   49 1
  48   29   30 1
  49   29   50 1
  50   29   51 1
  51   30   31 1
  52   30   34 1
  53   30   52 1
  54   31   32 1
  55   32   33 1
  56   32   35 1
  57   32   53 1
  58   33   54 1
  59   33   55 1
  60   34   56 1
  61   34   57 1
  62   34   58 1
  63   35   59 1
  64   35   60 1
  65   35   61 1
  66   36   37 1
  67   37   62 1
  68   37   63 1
  69   37   64 1

#	End of record

