#	Name: ASD02508438
#	Creating user name:	WinNT
#	Creation time:	15. 06. 2019 20:24

#	Modifying user name:	WinNT
#	Modification time:	15. 06. 2019 20:24

#	Program:	/corina/corina34_cracker 3.40 0067  02.08.2006

@<TRIPOS>MOLECULE
ASD02508438
  42   44    0    0    0
SMALL
NO_CHARGES


@<TRIPOS>ATOM
   1 C1            -0.5316     1.5394     0.3987 C.2     
   2 C2            -0.2818     0.1842     0.1545 C.2     
   3 C3             1.0551     0.0231     0.0245 C.2     
   4 N4             1.6333     1.2421     0.1821 N.pl3   
   5 N5             0.6128     2.1730     0.4155 N.2     
   6 C6             3.0029     1.5183     0.1229 C.ar    
   7 C7             3.4339     2.7959    -0.2175 C.ar    
   8 N8             3.8765     0.5633     0.3963 N.ar    
   9 C9             5.1767     0.7809     0.3523 C.ar    
  10 C10            5.6761     2.0242     0.0168 C.ar    
  11 C11            4.7934     3.0554    -0.2723 C.ar    
  12 S12           -1.4950    -1.0883     0.0376 S.o2    
  13 N13           -1.8992    -1.2347    -1.5617 N.am    
  14 O14           -0.8435    -2.2982     0.3992 O.2     
  15 O15           -2.6531    -0.6008     0.7011 O.2     
  16 C16           -2.4743    -0.1565    -2.2382 C.ar    
  17 C17           -2.0077     0.2051    -3.4956 C.ar    
  18 C18           -2.5789     1.2714    -4.1620 C.ar    
  19 C19           -3.6142     1.9788    -3.5789 C.ar    
  20 C20           -4.0811     1.6214    -2.3272 C.ar    
  21 C21           -3.5179     0.5529    -1.6576 C.ar    
  22 C22           -5.2096     2.3953    -1.6957 C.3     
  23 C23           -2.0731     1.6648    -5.5260 C.3     
  24 Cl24           2.2840     4.0479    -0.5692 Cl      
  25 C25            7.1638     2.2601    -0.0289 C.3     
  26 F26            7.8339     1.0782     0.3048 F       
  27 F27            7.5336     2.6577    -1.3182 F       
  28 F28            7.5052     3.2635     0.8844 F       
  29 H29           -1.5039     1.9866     0.5440 H       
  30 H30            1.5696    -0.9066    -0.1690 H       
  31 H31            5.8597    -0.0235     0.5820 H       
  32 H32            5.1582     4.0368    -0.5374 H       
  33 H33           -1.7366    -2.0693    -2.0286 H       
  34 H34           -1.1990    -0.3467    -3.9515 H       
  35 H35           -4.0589     2.8124    -4.1020 H       
  36 H36           -3.8833     0.2741    -0.6802 H       
  37 H37           -6.1614     1.9457    -1.9786 H       
  38 H38           -5.1044     2.3710    -0.6110 H       
  39 H39           -5.1791     3.4288    -2.0406 H       
  40 H40           -2.6307     1.1234    -6.2903 H       
  41 H41           -2.2085     2.7369    -5.6684 H       
  42 H42           -1.0143     1.4185    -5.6058 H       
@<TRIPOS>BOND
   1    1    2 1
   2    1    5 2
   3    1   29 1
   4    2    3 2
   5    2   12 1
   6    3    4 1
   7    3   30 1
   8    4    5 1
   9    4    6 1
  10    6    7 ar
  11    6    8 ar
  12    7   24 1
  13    7   11 ar
  14    8    9 ar
  15    9   10 ar
  16    9   31 1
  17   10   11 ar
  18   10   25 1
  19   11   32 1
  20   12   13 am
  21   12   14 2
  22   12   15 2
  23   13   16 1
  24   13   33 1
  25   16   17 ar
  26   16   21 ar
  27   17   18 ar
  28   17   34 1
  29   18   19 ar
  30   18   23 1
  31   19   20 ar
  32   19   35 1
  33   20   21 ar
  34   20   22 1
  35   21   36 1
  36   22   37 1
  37   22   38 1
  38   22   39 1
  39   23   40 1
  40   23   41 1
  41   23   42 1
  42   25   26 1
  43   25   27 1
  44   25   28 1

#	End of record

