#	Name: ASD06020023
#	Creating user name:	WinNT
#	Creation time:	15. 06. 2019 21:04

#	Modifying user name:	WinNT
#	Modification time:	15. 06. 2019 21:04

#	Program:	/corina/corina34_cracker 3.40 0067  02.08.2006

@<TRIPOS>MOLECULE
ASD06020023
  48   52    0    0    0
SMALL
NO_CHARGES


@<TRIPOS>ATOM
   1 C1            -0.2300     0.8676    -0.0065 C.2     
   2 O2             0.9268     1.1810    -0.2091 O.2     
   3 O3            -1.3856    -2.9860    -0.3205 O.3     
   4 C4            -2.3674    -1.9470    -0.3419 C.3     
   5 C5            -1.9201    -0.8109     0.5850 C.3     
   6 N6            -0.5497    -0.4227     0.2154 N.am    
   7 C7             0.4614    -1.4851     0.0949 C.3     
   8 C8            -0.1019    -2.5884    -0.8081 C.3     
   9 C9            -1.2857     1.9029     0.0026 C.ar    
  10 C10           -0.9412     3.2565     0.1070 C.ar    
  11 C11           -1.9634     4.1881     0.1108 C.ar    
  12 C12           -3.2756     3.7225     0.0103 C.ar    
  13 N13           -3.5102     2.4183    -0.0851 N.ar    
  14 N14           -2.5627     1.5524    -0.0939 N.ar    
  15 N15           -4.3324     4.6198     0.0104 N.pl3   
  16 C16           -5.6312     4.1653    -0.1988 C.ar    
  17 C17           -6.6807     5.0837    -0.3066 C.ar    
  18 C18           -7.9844     4.6203    -0.5174 C.ar    
  19 C19           -8.1628     3.2165    -0.6105 C.ar    
  20 C20           -7.0864     2.3947    -0.4942 C.ar    
  21 N21           -5.8656     2.8684    -0.3000 N.ar    
  22 S22           -6.7233     6.8415    -0.2285 S.3     
  23 C23           -8.4639     6.8202    -0.4813 C.2     
  24 N24           -8.8831     5.6024    -0.6003 N.2     
  25 C25           -9.3233     8.0205    -0.5481 C.ar    
  26 C26          -10.6987     7.8885    -0.7534 C.ar    
  27 C27          -11.4955     9.0143    -0.8148 C.ar    
  28 C28          -10.9355    10.2717    -0.6735 C.ar    
  29 C29           -9.5750    10.4114    -0.4700 C.ar    
  30 C30           -8.7649     9.2931    -0.4005 C.ar    
  31 F31           -7.4366     9.4305    -0.1960 F       
  32 Cl32         -11.4044     6.3124    -0.9316 Cl      
  33 H33           -2.4737    -1.5674    -1.3581 H       
  34 H34           -3.3233    -2.3423     0.0018 H       
  35 H35           -2.5877     0.0428     0.4679 H       
  36 H36           -1.9385    -1.1526     1.6199 H       
  37 H37            1.3709    -1.0779    -0.3468 H       
  38 H38            0.6828    -1.8947     1.0804 H       
  39 H39            0.5720    -3.4450    -0.7999 H       
  40 H40           -0.2000    -2.2111    -1.8260 H       
  41 H41            0.0915     3.5634     0.1827 H       
  42 H42           -1.7527     5.2444     0.1895 H       
  43 H43           -4.1667     5.5643     0.1563 H       
  44 H44           -9.1473     2.8032    -0.7724 H       
  45 H45           -7.2304     1.3268    -0.5658 H       
  46 H46          -12.5590     8.9133    -0.9738 H       
  47 H47          -11.5642    11.1485    -0.7228 H       
  48 H48           -9.1448    11.3960    -0.3610 H       
@<TRIPOS>BOND
   1    1    2 2
   2    1    6 am
   3    1    9 1
   4    3    4 1
   5    3    8 1
   6    4    5 1
   7    4   33 1
   8    4   34 1
   9    5    6 1
  10    5   35 1
  11    5   36 1
  12    6    7 1
  13    7    8 1
  14    7   37 1
  15    7   38 1
  16    8   39 1
  17    8   40 1
  18    9   10 ar
  19    9   14 ar
  20   10   11 ar
  21   10   41 1
  22   11   12 ar
  23   11   42 1
  24   12   13 ar
  25   12   15 1
  26   13   14 ar
  27   15   16 1
  28   15   43 1
  29   16   17 ar
  30   16   21 ar
  31   17   18 ar
  32   17   22 1
  33   18   19 ar
  34   18   24 1
  35   19   20 ar
  36   19   44 1
  37   20   21 ar
  38   20   45 1
  39   22   23 1
  40   23   24 2
  41   23   25 1
  42   25   26 ar
  43   25   30 ar
  44   26   27 ar
  45   26   32 1
  46   27   28 ar
  47   27   46 1
  48   28   29 ar
  49   28   47 1
  50   29   30 ar
  51   29   48 1
  52   30   31 1

#	End of record

