#	Name: ASD01911320
#	Creating user name:	WinNT
#	Creation time:	15. 06. 2019 19:57

#	Modifying user name:	WinNT
#	Modification time:	15. 06. 2019 19:57

#	Program:	/corina/corina34_cracker 3.40 0067  02.08.2006

@<TRIPOS>MOLECULE
ASD01911320
  30   32    0    0    0
SMALL
NO_CHARGES


@<TRIPOS>ATOM
   1 C1            -0.0167     1.3796     0.0096 C.ar    
   2 C2             0.0021    -0.0041     0.0020 C.ar    
   3 C3             1.2058    -0.6865    -0.0127 C.ar    
   4 C4             2.3967     0.0091    -0.0203 C.ar    
   5 C5             2.3857     1.4065    -0.0131 C.ar    
   6 C6             1.1662     2.0887     0.0021 C.ar    
   7 C7             3.6181     2.1358    -0.0205 C.1     
   8 C8             4.6284     2.7337    -0.0265 C.1     
   9 C9             5.8608     3.4629    -0.0339 C.ar    
  10 C10            5.8575     4.8663    -0.0267 C.ar    
  11 C11            7.0741     5.5258    -0.0338 C.ar    
  12 C12            8.2538     4.7784    -0.0447 C.ar    
  13 N13            8.2193     3.4546    -0.0527 N.ar    
  14 C14            7.0826     2.7883    -0.0423 C.ar    
  15 O15            7.1042     6.8838    -0.0349 O.3     
  16 C16            8.3124     7.5216     0.3875 C.3     
  17 C17            9.4937     6.8778    -0.3522 C.3     
  18 N18            9.4848     5.4386    -0.0427 N.pl3   
  19 H19           -0.9600     1.9055     0.0169 H       
  20 H20           -0.9274    -0.5541     0.0079 H       
  21 H21            1.2128    -1.7665    -0.0178 H       
  22 H22            3.3354    -0.5248    -0.0314 H       
  23 H23            1.1500     3.1686     0.0074 H       
  24 H24            4.9290     5.4178    -0.0164 H       
  25 H25            7.0964     1.7084    -0.0490 H       
  26 H26            8.2673     8.5843     0.1495 H       
  27 H27            8.4387     7.3903     1.4621 H       
  28 H28            9.3817     7.0254    -1.4264 H       
  29 H29           10.4289     7.3230    -0.0129 H       
  30 H30           10.3071     4.9642     0.1564 H       
@<TRIPOS>BOND
   1    1    2 ar
   2    1    6 ar
   3    1   19 1
   4    2    3 ar
   5    2   20 1
   6    3    4 ar
   7    3   21 1
   8    4    5 ar
   9    4   22 1
  10    5    6 ar
  11    5    7 1
  12    6   23 1
  13    7    8 3
  14    8    9 1
  15    9   10 ar
  16    9   14 ar
  17   10   11 ar
  18   10   24 1
  19   11   12 ar
  20   11   15 1
  21   12   13 ar
  22   12   18 1
  23   13   14 ar
  24   14   25 1
  25   15   16 1
  26   16   17 1
  27   16   26 1
  28   16   27 1
  29   17   18 1
  30   17   28 1
  31   17   29 1
  32   18   30 1

#	End of record

