#	Name: ASD03330232
#	Creating user name:	WinNT
#	Creation time:	15. 06. 2019 20:36

#	Modifying user name:	WinNT
#	Modification time:	15. 06. 2019 20:36

#	Program:	/corina/corina34_cracker 3.40 0067  02.08.2006

@<TRIPOS>MOLECULE
ASD03330232
  57   60    0    0    0
SMALL
NO_CHARGES


@<TRIPOS>ATOM
   1 C1             0.5002     1.8021    -0.0517 C.3     
   2 N2             0.2567     0.3528    -0.0563 N.3     
   3 C3             0.7056    -0.2594    -1.3199 C.3     
   4 C4             2.1137     0.2062    -1.5874 C.2     
   5 N5             2.6933     1.2679    -0.9511 N.pl3   
   6 C6             2.0055     2.0767     0.0594 C.3     
   7 C7             3.0304    -0.2940    -2.4506 C.2     
   8 N8             4.1581     0.4576    -2.3355 N.2     
   9 C9             3.9577     1.3958    -1.4344 C.2     
  10 C10            4.9399     2.4156    -1.0191 C.2     
  11 C11            5.1702     2.7193     0.2600 C.2     
  12 C12            2.8402    -1.4444    -3.3509 C.2     
  13 O13            1.7793    -2.0391    -3.3619 O.2     
  14 O14            6.0094    -2.9679    -5.1802 O.2     
  15 C15            4.9910    -3.5965    -5.3770 C.2     
  16 C16            3.6526    -2.9819    -5.0577 C.3     
  17 N17            3.8418    -1.8378    -4.1624 N.am    
  18 C18            2.9854    -2.5119    -6.3518 C.3     
  19 C19            2.8325    -3.6976    -7.3066 C.3     
  20 C20            1.6057    -1.9326    -6.0330 C.3     
  21 C21            3.8508    -1.4354    -7.0100 C.3     
  22 N22            5.0563    -4.8446    -5.8814 N.am    
  23 C23            6.3509    -5.4126    -6.2657 C.3     
  24 S24            6.3916     3.9673     0.4074 S.3     
  25 C25            6.5950     4.0784    -1.3360 C.ar    
  26 C26            5.7468     3.1736    -1.9742 C.ar    
  27 C27            7.4385     4.8939    -2.0986 C.ar    
  28 C28            7.4275     4.8093    -3.4706 C.ar    
  29 C29            6.5791     3.9140    -4.1069 C.ar    
  30 C30            5.7573     3.1056    -3.3819 C.ar    
  31 H31            0.1200     2.2361    -0.9765 H       
  32 H32           -0.0139     2.2531     0.7970 H       
  33 H33            0.6964    -0.0902     0.7364 H       
  34 H34            0.6873    -1.3455    -1.2301 H       
  35 H35            0.0526     0.0549    -2.1341 H       
  36 H36            2.2007     3.1339    -0.1203 H       
  37 H37            2.3574     1.8007     1.0534 H       
  38 H38            4.6681     2.2560     1.0965 H       
  39 H39            3.0192    -3.7234    -4.5709 H       
  40 H40            4.6878    -1.3635    -4.1536 H       
  41 H41            2.1756    -4.4429    -6.8581 H       
  42 H42            2.4028    -3.3535    -8.2473 H       
  43 H43            3.8103    -4.1412    -7.4945 H       
  44 H44            1.7146    -1.0879    -5.3528 H       
  45 H45            1.1303    -1.5978    -6.9550 H       
  46 H46            0.9891    -2.6995    -5.5641 H       
  47 H47            4.8338    -1.8481    -7.2371 H       
  48 H48            3.3755    -1.1006    -7.9320 H       
  49 H49            3.9597    -0.5907    -6.3298 H       
  50 H50            4.2462    -5.3669    -5.9899 H       
  51 H51            7.0060    -5.4457    -5.3951 H       
  52 H52            6.2052    -6.4223    -6.6494 H       
  53 H53            6.8048    -4.7922    -7.0385 H       
  54 H54            8.1000     5.5923    -1.6077 H       
  55 H55            8.0801     5.4412    -4.0547 H       
  56 H56            6.5752     3.8534    -5.1852 H       
  57 H57            5.1021     2.4134    -3.8898 H       
@<TRIPOS>BOND
   1    1    2 1
   2    1    6 1
   3    1   31 1
   4    1   32 1
   5    2    3 1
   6    2   33 1
   7    3    4 1
   8    3   34 1
   9    3   35 1
  10    4    5 1
  11    4    7 2
  12    5    6 1
  13    5    9 1
  14    6   36 1
  15    6   37 1
  16    7    8 1
  17    7   12 1
  18    8    9 2
  19    9   10 1
  20   10   11 2
  21   10   26 1
  22   11   24 1
  23   11   38 1
  24   12   13 2
  25   12   17 am
  26   14   15 2
  27   15   22 am
  28   15   16 1
  29   16   17 1
  30   16   18 1
  31   16   39 1
  32   17   40 1
  33   18   19 1
  34   18   20 1
  35   18   21 1
  36   19   41 1
  37   19   42 1
  38   19   43 1
  39   20   44 1
  40   20   45 1
  41   20   46 1
  42   21   47 1
  43   21   48 1
  44   21   49 1
  45   22   23 1
  46   22   50 1
  47   23   51 1
  48   23   52 1
  49   23   53 1
  50   24   25 1
  51   25   26 ar
  52   25   27 ar
  53   26   30 ar
  54   27   28 ar
  55   27   54 1
  56   28   29 ar
  57   28   55 1
  58   29   30 ar
  59   29   56 1
  60   30   57 1

#	End of record

