#	Name: ASD08070544
#	Creating user name:	WinNT
#	Creation time:	15. 06. 2019 21:15

#	Modifying user name:	WinNT
#	Modification time:	15. 06. 2019 21:15

#	Program:	/corina/corina34_cracker 3.40 0067  02.08.2006

@<TRIPOS>MOLECULE
ASD08070544
  44   45    0    0    0
SMALL
NO_CHARGES


@<TRIPOS>ATOM
   1 C1            -0.0184     1.5028     0.0103 C.2     
   2 C2             0.0021    -0.0041     0.0020 C.3     
   3 C3            -0.7241    -0.5171    -1.2431 C.3     
   4 C4            -0.8126    -2.0436    -1.1892 C.3     
   5 C5            -1.6900    -2.4622    -0.0077 C.3     
   6 O6             1.0197     2.1211     0.0037 O.2     
   7 O7            -1.1898     2.1580     0.0194 O.3     
   8 C8             2.0717    -0.5994     1.1419 C.2     
   9 O9             1.5351    -0.3231     2.1980 O.2     
  10 N10            1.3897    -0.4735    -0.0138 N.am    
  11 N11            4.1813    -1.4138    -0.0041 N.pl3   
  12 C12            3.4647    -1.0707     1.1261 C.2     
  13 C13            4.2523    -1.2373     2.2205 C.2     
  14 C14            5.5140    -1.7021     1.7769 C.ar    
  15 C15            6.7012    -2.0423     2.4386 C.ar    
  16 C16            7.7797    -2.4701     1.7207 C.ar    
  17 C17            7.7130    -2.5724     0.3367 C.ar    
  18 C18            6.5579    -2.2440    -0.3364 C.ar    
  19 C19            5.4439    -1.8049     0.3739 C.ar    
  20 C20            9.0552    -2.8347     2.4356 C.3     
  21 C21           -1.4263    -2.5652    -2.4901 C.3     
  22 C22           -1.1335     3.6089     0.0270 C.3     
  23 H23           -0.4983    -0.3791     0.8948 H       
  24 H24           -1.7288    -0.0959    -1.2772 H       
  25 H25           -0.1736    -0.2164    -2.1345 H       
  26 H26            0.1866    -2.4614    -1.0657 H       
  27 H27           -2.6891    -2.0444    -0.1312 H       
  28 H28           -1.7530    -3.5497     0.0307 H       
  29 H29           -1.2528    -2.0906     0.9191 H       
  30 H30            1.8177    -0.6938    -0.8559 H       
  31 H31            3.8471    -1.3871    -0.9144 H       
  32 H32            3.9673    -1.0485     3.2450 H       
  33 H33            6.7626    -1.9656     3.5142 H       
  34 H34            8.5760    -2.9124    -0.2165 H       
  35 H35            6.5160    -2.3265    -1.4125 H       
  36 H36            9.0362    -3.8931     2.6957 H       
  37 H37            9.9063    -2.6359     1.7843 H       
  38 H38            9.1458    -2.2389     3.3438 H       
  39 H39           -0.8012    -2.2670    -3.3318 H       
  40 H40           -1.4893    -3.6527    -2.4517 H       
  41 H41           -2.4254    -2.1474    -2.6135 H       
  42 H42           -0.6102     3.9569    -0.8636 H       
  43 H43           -2.1463     4.0118     0.0340 H       
  44 H44           -0.6017     3.9472     0.9164 H       
@<TRIPOS>BOND
   1    1    2 1
   2    1    6 2
   3    1    7 1
   4    2    3 1
   5    2   10 1
   6    2   23 1
   7    3    4 1
   8    3   24 1
   9    3   25 1
  10    4    5 1
  11    4   21 1
  12    4   26 1
  13    5   27 1
  14    5   28 1
  15    5   29 1
  16    7   22 1
  17    8    9 2
  18    8   10 am
  19    8   12 1
  20   10   30 1
  21   11   12 1
  22   11   19 1
  23   11   31 1
  24   12   13 2
  25   13   14 1
  26   13   32 1
  27   14   15 ar
  28   14   19 ar
  29   15   16 ar
  30   15   33 1
  31   16   17 ar
  32   16   20 1
  33   17   18 ar
  34   17   34 1
  35   18   19 ar
  36   18   35 1
  37   20   36 1
  38   20   37 1
  39   20   38 1
  40   21   39 1
  41   21   40 1
  42   21   41 1
  43   22   42 1
  44   22   43 1
  45   22   44 1

#	End of record

