#	Name: ASD01530042
#	Creating user name:	WinNT
#	Creation time:	15. 06. 2019 19:22

#	Modifying user name:	WinNT
#	Modification time:	15. 06. 2019 19:22

#	Program:	/corina/corina34_cracker 3.40 0067  02.08.2006

@<TRIPOS>MOLECULE
ASD01530042
  25   26    0    0    0
SMALL
NO_CHARGES


@<TRIPOS>ATOM
   1 C1            -0.0170     1.3917     0.0015 C.ar    
   2 C2             0.0017    -0.0039    -0.0171 C.ar    
   3 C3             1.1967    -0.6668    -0.0477 C.ar    
   4 C4             2.3925     0.0367    -0.0600 C.ar    
   5 C5             2.3962     1.4162    -0.0415 C.ar    
   6 C6             1.1911     2.1093    -0.0112 C.ar    
   7 C7            -1.0868     2.3945     0.0402 C.2     
   8 C8            -0.4999     3.5992     0.0418 C.2     
   9 N9             0.8666     3.4536     0.0123 N.am    
  10 C10            1.7553     4.4669     0.0057 C.2     
  11 O11            1.4735     5.6048    -0.6555 O.3     
  12 O12            2.8104     4.3531     0.5964 O.2     
  13 C13            2.4769     6.6537    -0.6197 C.3     
  14 C14            1.9825     7.8599    -1.4206 C.3     
  15 Cl15           3.8999     2.2836    -0.0561 Cl      
  16 H16           -0.9251    -0.5582    -0.0070 H       
  17 H17            1.2102    -1.7467    -0.0621 H       
  18 H18            3.3291    -0.5006    -0.0839 H       
  19 H19           -2.1487     2.1986     0.0627 H       
  20 H20           -1.0226     4.5440     0.0667 H       
  21 H21            2.6543     6.9517     0.4136 H       
  22 H22            3.4049     6.2838    -1.0556 H       
  23 H23            2.7357     8.6474    -1.3938 H       
  24 H24            1.8051     7.5620    -2.4540 H       
  25 H25            1.0545     8.2299    -0.9847 H       
@<TRIPOS>BOND
   1    1    2 ar
   2    1    6 ar
   3    1    7 1
   4    2    3 ar
   5    2   16 1
   6    3    4 ar
   7    3   17 1
   8    4    5 ar
   9    4   18 1
  10    5    6 ar
  11    5   15 1
  12    6    9 1
  13    7    8 2
  14    7   19 1
  15    8    9 1
  16    8   20 1
  17    9   10 am
  18   10   11 1
  19   10   12 2
  20   11   13 1
  21   13   14 1
  22   13   21 1
  23   13   22 1
  24   14   23 1
  25   14   24 1
  26   14   25 1

#	End of record

