#	Name: ASD01190041
#	Creating user name:	WinNT
#	Creation time:	15. 06. 2019 19:07

#	Modifying user name:	WinNT
#	Modification time:	15. 06. 2019 19:07

#	Program:	/corina/corina34_cracker 3.40 0067  02.08.2006

@<TRIPOS>MOLECULE
ASD01190041
  52   56    0    0    0
SMALL
NO_CHARGES


@<TRIPOS>ATOM
   1 N1            -0.0254     1.4584     0.1081 N.am    
   2 N2            -0.0201     0.1045     0.4596 N.2     
   3 C3             1.2029    -0.3204     0.5869 C.2     
   4 C4             2.0993     0.8002     0.3084 C.ar    
   5 C5             3.4894     0.9488     0.2887 C.ar    
   6 C6             4.0374     2.1610    -0.0188 C.ar    
   7 C7             3.2265     3.2495    -0.3126 C.ar    
   8 C8             1.8549     3.1266    -0.2988 C.ar    
   9 C9             1.2751     1.9010     0.0112 C.ar    
  10 C10           -1.1253     2.2071    -0.1068 C.2     
  11 O11           -1.0133     3.3780    -0.4091 O.2     
  12 O12           -2.3478     1.6572     0.0137 O.3     
  13 C13            5.5360     2.3193    -0.0390 C.3     
  14 C14            6.1139     1.5509    -1.2292 C.3     
  15 O15            5.8670     3.7041    -0.1600 O.3     
  16 F16            5.5754     2.0571    -2.4170 F       
  17 F17            7.5051     1.6979    -1.2480 F       
  18 F18            5.7898     0.1951    -1.1108 F       
  19 N19            7.3039     0.5608     2.6701 N.pl3   
  20 C20            7.0119     0.7805     1.3514 C.2     
  21 C21            6.1160     1.7740     1.2405 C.2     
  22 C22            5.8092     2.2277     2.5992 C.ar    
  23 C23            4.9697     3.2101     3.1280 C.ar    
  24 C24            4.9059     3.3914     4.4807 C.ar    
  25 C25            5.6692     2.6064     5.3342 C.ar    
  26 C26            6.5043     1.6319     4.8339 C.ar    
  27 C27            6.5847     1.4297     3.4598 C.ar    
  28 C28            8.2378    -0.4523     3.1678 C.3     
  29 C29           -3.4872     2.5229    -0.2323 C.3     
  30 C30           -4.7141     1.7827    -0.7906 C.3     
  31 C31           -5.5699     2.6720     0.1269 C.3     
  32 C32           -4.3279     2.8065     1.0237 C.3     
  33 H33            1.5029    -1.3237     0.8514 H       
  34 H34            4.1275     0.1077     0.5162 H       
  35 H35            3.6757     4.2015    -0.5538 H       
  36 H36            1.2319     3.9785    -0.5279 H       
  37 H37            5.5318     4.2532     0.5620 H       
  38 H38            7.4392     0.2355     0.5227 H       
  39 H39            4.3733     3.8248     2.4701 H       
  40 H40            4.2566     4.1517     4.8892 H       
  41 H41            5.6079     2.7616     6.4013 H       
  42 H42            7.0944     1.0266     5.5061 H       
  43 H43            9.2375    -0.0231     3.2349 H       
  44 H44            7.9189    -0.7866     4.1550 H       
  45 H45            8.2519    -1.3008     2.4838 H       
  46 H46           -3.2245     3.4188    -0.7949 H       
  47 H47           -4.8847     1.9592    -1.8526 H       
  48 H48           -4.7441     0.7257    -0.5259 H       
  49 H49           -5.8774     3.6094    -0.3366 H       
  50 H50           -6.3959     2.1424     0.6016 H       
  51 H51           -4.2523     2.0295     1.7843 H       
  52 H52           -4.1867     3.8095     1.4263 H       
@<TRIPOS>BOND
   1    1    2 1
   2    1    9 1
   3    1   10 am
   4    2    3 2
   5    3    4 1
   6    3   33 1
   7    4    5 ar
   8    4    9 ar
   9    5    6 ar
  10    5   34 1
  11    6    7 ar
  12    6   13 1
  13    7    8 ar
  14    7   35 1
  15    8    9 ar
  16    8   36 1
  17   10   11 2
  18   10   12 1
  19   12   29 1
  20   13   14 1
  21   13   15 1
  22   13   21 1
  23   14   16 1
  24   14   17 1
  25   14   18 1
  26   15   37 1
  27   19   20 1
  28   19   27 1
  29   19   28 1
  30   20   21 2
  31   20   38 1
  32   21   22 1
  33   22   23 ar
  34   22   27 ar
  35   23   24 ar
  36   23   39 1
  37   24   25 ar
  38   24   40 1
  39   25   26 ar
  40   25   41 1
  41   26   27 ar
  42   26   42 1
  43   28   43 1
  44   28   44 1
  45   28   45 1
  46   29   30 1
  47   29   32 1
  48   29   46 1
  49   30   31 1
  50   30   47 1
  51   30   48 1
  52   31   32 1
  53   31   49 1
  54   31   50 1
  55   32   51 1
  56   32   52 1

#	End of record

