#	Name: ASD04590456
#	Creating user name:	WinNT
#	Creation time:	15. 06. 2019 20:50

#	Modifying user name:	WinNT
#	Modification time:	15. 06. 2019 20:50

#	Program:	/corina/corina34_cracker 3.40 0067  02.08.2006

@<TRIPOS>MOLECULE
ASD04590456
  54   58    0    0    0
SMALL
NO_CHARGES


@<TRIPOS>ATOM
   1 C1            -0.0169     1.3919     0.0097 C.ar    
   2 C2             0.0021    -0.0041     0.0020 C.ar    
   3 C3            -2.4013    -0.0383     0.0243 C.ar    
   4 C4            -2.4140     1.3672     0.0440 C.ar    
   5 C5            -1.2195     2.0733     0.0306 C.ar    
   6 N6            -3.6930    -0.4516     0.0442 N.2     
   7 C7            -4.4887     0.5897     0.0743 C.2     
   8 N8            -3.7459     1.7405     0.0756 N.pl3   
   9 C9            -5.9648     0.5309     0.1027 C.2     
  10 C10           -6.7500    -0.6452     0.1025 C.2     
  11 C11           -8.0528    -0.2722     0.1332 C.2     
  12 N12           -8.0970     1.0860     0.1523 N.pl3   
  13 N13           -6.7813     1.5657     0.1385 N.2     
  14 N14           -6.2667    -1.9633     0.0752 N.am    
  15 C15           -7.1304    -2.9980     0.0784 C.2     
  16 O16           -8.3294    -2.7898     0.1049 O.2     
  17 C17           -6.6257    -4.3743     0.0500 C.2     
  18 C18           -1.1781    -0.7176     0.0090 C.ar    
  19 C19           -7.3771    -5.5299     0.0493 C.2     
  20 O20            1.1915    -0.6643    -0.0129 O.3     
  21 C21            1.1408    -2.0924    -0.0201 C.3     
  22 N22           -6.5412    -6.5635     0.0190 N.2     
  23 C23           -5.2965    -6.1301     0.0002 C.2     
  24 N24           -5.3014    -4.7709     0.0124 N.pl3   
  25 O25            1.1536     2.0847     0.0022 O.3     
  26 C26            1.0634     3.5109     0.0108 C.3     
  27 C27           -8.8818    -5.6082     0.0780 C.3     
  28 C28           -4.0907    -6.9839    -0.0351 C.ar    
  29 C29           -4.2166    -8.3742    -0.0517 C.ar    
  30 C30           -3.0877    -9.1657    -0.0846 C.ar    
  31 C31           -1.8310    -8.5839    -0.1006 C.ar    
  32 C32           -1.6996    -7.2053    -0.0837 C.ar    
  33 C33           -2.8213    -6.4033    -0.0576 C.ar    
  34 Cl34          -0.4145    -9.5868    -0.1413 Cl      
  35 H35           -1.2293     3.1532     0.0368 H       
  36 H36           -4.0893     2.6474     0.0954 H       
  37 H37           -8.9045    -0.9364     0.1408 H       
  38 H38           -8.9004     1.6290     0.1754 H       
  39 H39           -5.3112    -2.1292     0.0541 H       
  40 H40           -1.1583    -1.7974     0.0023 H       
  41 H41            0.6229    -2.4420     0.8730 H       
  42 H42            0.6059    -2.4325    -0.9068 H       
  43 H43            2.1549    -2.4919    -0.0319 H       
  44 H44           -4.5245    -4.1902     0.0035 H       
  45 H45            0.5192     3.8458    -0.8723 H       
  46 H46            0.5362     3.8362     0.9076 H       
  47 H47            2.0660     3.9384     0.0035 H       
  48 H48           -9.2649    -5.6132    -0.9425 H       
  49 H49           -9.1885    -6.5226     0.5858 H       
  50 H50           -9.2804    -4.7452     0.6114 H       
  51 H51           -5.1961    -8.8290    -0.0385 H       
  52 H52           -3.1838   -10.2413    -0.0975 H       
  53 H53           -0.7170    -6.7574    -0.0956 H       
  54 H54           -2.7177    -5.3283    -0.0449 H       
@<TRIPOS>BOND
   1    1    2 ar
   2    1   25 1
   3    1    5 ar
   4    2   18 ar
   5    2   20 1
   6    3    4 ar
   7    3    6 1
   8    3   18 ar
   9    4    5 ar
  10    4    8 1
  11    5   35 1
  12    6    7 2
  13    7    8 1
  14    7    9 1
  15    8   36 1
  16    9   10 1
  17    9   13 2
  18   10   11 2
  19   10   14 1
  20   11   12 1
  21   11   37 1
  22   12   13 1
  23   12   38 1
  24   14   15 am
  25   14   39 1
  26   15   16 2
  27   15   17 1
  28   17   19 2
  29   17   24 1
  30   18   40 1
  31   19   22 1
  32   19   27 1
  33   20   21 1
  34   21   41 1
  35   21   42 1
  36   21   43 1
  37   22   23 2
  38   23   24 1
  39   23   28 1
  40   24   44 1
  41   25   26 1
  42   26   45 1
  43   26   46 1
  44   26   47 1
  45   27   48 1
  46   27   49 1
  47   27   50 1
  48   28   29 ar
  49   28   33 ar
  50   29   30 ar
  51   29   51 1
  52   30   31 ar
  53   30   52 1
  54   31   32 ar
  55   31   34 1
  56   32   33 ar
  57   32   53 1
  58   33   54 1

#	End of record

