#	Name: ASD03730209
#	Creating user name:	WinNT
#	Creation time:	15. 06. 2019 20:44

#	Modifying user name:	WinNT
#	Modification time:	15. 06. 2019 20:44

#	Program:	/corina/corina34_cracker 3.40 0067  02.08.2006

@<TRIPOS>MOLECULE
ASD03730209
  51   56    0    0    0
SMALL
NO_CHARGES


@<TRIPOS>ATOM
   1 C1            -0.0187     1.5021     0.0185 C.2     
   2 C2             0.0011    -0.0045    -0.0114 C.3     
   3 O3             1.0236     2.1220     0.0366 O.2     
   4 N4            -1.1946     2.1607     0.0195 N.am    
   5 C5            -1.2153     3.5564     0.1329 C.ar    
   6 C6            -2.3326     4.1965     0.6587 C.ar    
   7 C7            -2.3489     5.5747     0.7689 C.ar    
   8 C8            -1.2559     6.3153     0.3567 C.ar    
   9 C9            -0.1445     5.6810    -0.1662 C.ar    
  10 C10           -0.1190     4.3036    -0.2739 C.ar    
  11 F11           -3.4003     3.4729     1.0609 F       
  12 O12            5.2090    -2.5102     1.4081 O.3     
  13 C13            5.5494    -1.2143     1.6603 C.ar    
  14 C14            4.5565    -0.3394     1.2257 C.ar    
  15 C15            3.4548    -1.1895     0.6537 C.3     
  16 C16            3.7906    -2.5947     1.1728 C.3     
  17 O17            7.8756     1.3736     2.9796 O.3     
  18 C18            6.8499     0.6742     2.4193 C.ar    
  19 C19            5.8527     1.5265     1.9619 C.ar    
  20 C20            6.3094     2.9429     2.2517 C.3     
  21 C21            7.8163     2.7400     2.5373 C.3     
  22 C22            4.7138     1.0222     1.3727 C.ar    
  23 C23            6.6914    -0.6978     2.2598 C.ar    
  24 N24            1.3886    -0.4747    -0.0131 N.am    
  25 C25            2.0949    -0.7390     1.1042 C.2     
  26 C26            3.4135    -1.1422    -0.8448 C.ar    
  27 C27            4.3300    -1.4310    -1.8312 C.ar    
  28 C28            3.9837    -1.2847    -3.1636 C.ar    
  29 C29            2.7146    -0.8475    -3.5010 C.ar    
  30 C30            1.7939    -0.5572    -2.5159 C.ar    
  31 C31            2.1340    -0.7016    -1.1731 C.ar    
  32 O32            1.7079    -0.6338     2.2488 O.2     
  33 Cl33           5.1384    -1.6481    -4.4079 Cl      
  34 H34           -0.5129    -0.3921     0.8682 H       
  35 H35           -0.5030    -0.3567    -0.9114 H       
  36 H36           -2.0265     1.6680    -0.0584 H       
  37 H37           -3.2158     6.0733     1.1767 H       
  38 H38           -1.2709     7.3917     0.4433 H       
  39 H39            0.7070     6.2627    -0.4870 H       
  40 H40            0.7519     3.8092    -0.6783 H       
  41 H41            3.5677    -3.3494     0.4185 H       
  42 H42            3.2563    -2.8028     2.0997 H       
  43 H43            6.1604     3.5856     1.3841 H       
  44 H44            5.7980     3.3460     3.1259 H       
  45 H45            8.1547     3.4152     3.3233 H       
  46 H46            8.4034     2.8777     1.6293 H       
  47 H47            3.9434     1.6946     1.0252 H       
  48 H48            7.4637    -1.3689     2.6057 H       
  49 H49            5.3198    -1.7715    -1.5651 H       
  50 H50            2.4440    -0.7332    -4.5402 H       
  51 H51            0.8057    -0.2157    -2.7869 H       
@<TRIPOS>BOND
   1    1    2 1
   2    1    3 2
   3    1    4 am
   4    2   24 1
   5    2   34 1
   6    2   35 1
   7    4    5 1
   8    4   36 1
   9    5    6 ar
  10    5   10 ar
  11    6    7 ar
  12    6   11 1
  13    7    8 ar
  14    7   37 1
  15    8    9 ar
  16    8   38 1
  17    9   10 ar
  18    9   39 1
  19   10   40 1
  20   12   13 1
  21   12   16 1
  22   13   14 ar
  23   13   23 ar
  24   14   15 1
  25   14   22 ar
  26   15   16 1
  27   15   25 1
  28   15   26 1
  29   16   41 1
  30   16   42 1
  31   17   18 1
  32   17   21 1
  33   18   19 ar
  34   18   23 ar
  35   19   20 1
  36   19   22 ar
  37   20   21 1
  38   20   43 1
  39   20   44 1
  40   21   45 1
  41   21   46 1
  42   22   47 1
  43   23   48 1
  44   24   25 am
  45   24   31 1
  46   25   32 2
  47   26   27 ar
  48   26   31 ar
  49   27   28 ar
  50   27   49 1
  51   28   29 ar
  52   28   33 1
  53   29   30 ar
  54   29   50 1
  55   30   31 ar
  56   30   51 1

#	End of record

