#	Name: ASD01913985
#	Creating user name:	WinNT
#	Creation time:	15. 06. 2019 20:02

#	Modifying user name:	WinNT
#	Modification time:	15. 06. 2019 20:02

#	Program:	/corina/corina34_cracker 3.40 0067  02.08.2006

@<TRIPOS>MOLECULE
ASD01913985
  42   45    0    0    0
SMALL
NO_CHARGES


@<TRIPOS>ATOM
   1 N1            -0.0192     1.2847     0.0393 N.2     
   2 N2            -0.0034    -0.0031     0.0485 N.pl3   
   3 C3             1.2794    -0.4476     0.0481 C.2     
   4 C4             2.0816     0.6614     0.0421 C.2     
   5 C5             1.2134     1.7630     0.0346 C.2     
   6 C6             3.5839     0.6345     0.0469 C.3     
   7 C7             1.7783    -1.8361     0.0490 C.ar    
   8 C8             0.9512    -2.8837    -0.3502 C.ar    
   9 C9             1.4344    -4.1764    -0.3609 C.ar    
  10 C10            2.7391    -4.4363     0.0229 C.ar    
  11 C11            3.5672    -3.4079     0.4271 C.ar    
  12 C12            3.0951    -2.1018     0.4518 C.ar    
  13 S13            4.1443    -0.8006     1.0076 S.3     
  14 C14            1.6025     3.1880     0.0241 C.2     
  15 O15            2.7784     3.4970     0.0202 O.2     
  16 N16            0.6540     4.1455     0.0188 N.am    
  17 C17           -1.1917    -0.8600     0.0585 C.3     
  18 C18            1.0190     5.4932     0.1283 C.ar    
  19 C19            0.2812     6.4727    -0.5336 C.ar    
  20 C20            0.6462     7.8040    -0.4221 C.ar    
  21 C21            1.7407     8.1596     0.3448 C.ar    
  22 C22            2.4742     7.1882     1.0021 C.ar    
  23 C23            2.1121     5.8569     0.9005 C.ar    
  24 O24           -0.7947     6.1220    -1.2880 O.3     
  25 C25           -1.5036     7.1789    -1.9378 C.3     
  26 Cl26           3.8473     7.6415     1.9626 Cl      
  27 H27            3.9507     0.5544    -0.9764 H       
  28 H28            3.9638     1.5492     0.5019 H       
  29 H29           -0.0669    -2.6845    -0.6507 H       
  30 H30            0.7924    -4.9883    -0.6693 H       
  31 H31            3.1114    -5.4500     0.0064 H       
  32 H32            4.5837    -3.6194     0.7245 H       
  33 H33           -0.2813     3.9013    -0.0610 H       
  34 H34           -1.4894    -1.0802    -0.9667 H       
  35 H35           -0.9643    -1.7904     0.5787 H       
  36 H36           -2.0054    -0.3467     0.5708 H       
  37 H37            0.0761     8.5647    -0.9346 H       
  38 H38            2.0237     9.1984     0.4304 H       
  39 H39            2.6831     5.1007     1.4187 H       
  40 H40           -1.8845     7.8745    -1.1900 H       
  41 H41           -0.8307     7.7055    -2.6145 H       
  42 H42           -2.3366     6.7629    -2.5046 H       
@<TRIPOS>BOND
   1    1    2 1
   2    1    5 2
   3    2    3 1
   4    2   17 1
   5    3    4 2
   6    3    7 1
   7    4    5 1
   8    4    6 1
   9    5   14 1
  10    6   13 1
  11    6   27 1
  12    6   28 1
  13    7    8 ar
  14    7   12 ar
  15    8    9 ar
  16    8   29 1
  17    9   10 ar
  18    9   30 1
  19   10   11 ar
  20   10   31 1
  21   11   12 ar
  22   11   32 1
  23   12   13 1
  24   14   15 2
  25   14   16 am
  26   16   18 1
  27   16   33 1
  28   17   34 1
  29   17   35 1
  30   17   36 1
  31   18   19 ar
  32   18   23 ar
  33   19   20 ar
  34   19   24 1
  35   20   21 ar
  36   20   37 1
  37   21   22 ar
  38   21   38 1
  39   22   23 ar
  40   22   26 1
  41   23   39 1
  42   24   25 1
  43   25   40 1
  44   25   41 1
  45   25   42 1

#	End of record

