#	Name: ASD03240127
#	Creating user name:	WinNT
#	Creation time:	15. 06. 2019 20:34

#	Modifying user name:	WinNT
#	Modification time:	15. 06. 2019 20:34

#	Program:	/corina/corina34_cracker 3.40 0067  02.08.2006

@<TRIPOS>MOLECULE
ASD03240127
  75   82    0    0    0
SMALL
NO_CHARGES


@<TRIPOS>ATOM
   1 C1            -0.0172     1.4160     0.0098 C.ar    
   2 C2             0.0021    -0.0041     0.0020 C.ar    
   3 C3             1.1949     2.1241     0.0021 C.ar    
   4 C4             2.3741     1.3947    -0.0132 C.ar    
   5 C5             2.3165    -0.0171    -0.0202 C.ar    
   6 N6             1.1631    -0.6585    -0.0127 N.ar    
   7 C7             3.5776    -0.7938    -0.0370 C.ar    
   8 C8             3.6833     2.0898    -0.0224 C.ar    
   9 C9             3.9289     3.1072    -0.9434 C.ar    
  10 C10            5.1495     3.7511    -0.9470 C.ar    
  11 C11            6.1283     3.3888    -0.0391 C.ar    
  12 C12            5.8905     2.3797     0.8768 C.ar    
  13 C13            4.6717     1.7327     0.8936 C.ar    
  14 C14            3.6625    -2.0061     0.6475 C.ar    
  15 C15            4.8401    -2.7250     0.6281 C.ar    
  16 C16            5.9353    -2.2455    -0.0680 C.ar    
  17 C17            5.8572    -1.0437    -0.7489 C.ar    
  18 C18            4.6832    -0.3187    -0.7421 C.ar    
  19 C19            7.2187    -3.0352    -0.0842 C.3     
  20 N20           -1.1679    -0.6564     0.0102 N.ar    
  21 C21           -2.3030     0.0116     0.0251 C.ar    
  22 N22           -2.3565     1.3405     0.0327 N.ar    
  23 C23           -1.2608     2.0721     0.0311 C.ar    
  24 N24            7.2086    -3.9625    -1.2235 N.3     
  25 C25            8.5287    -4.5770    -1.4135 C.3     
  26 C26            8.5210    -5.4211    -2.6900 C.3     
  27 C27            7.4451    -6.5043    -2.5733 C.3     
  28 C28            6.0876    -5.8399    -2.3276 C.3     
  29 C29            6.1659    -4.9837    -1.0616 C.3     
  30 C30            7.3919    -7.3010    -3.8514 C.2     
  31 N31            6.6942    -6.9793    -4.9663 N.pl3   
  32 C32            6.9402    -7.9820    -5.8651 C.2     
  33 N33            7.7471    -8.8360    -5.2755 N.2     
  34 N34            8.0152    -8.4251    -4.0871 N.2     
  35 C35            6.3999    -8.0853    -7.2383 C.ar    
  36 C36            6.7454    -9.1746    -8.0375 C.ar    
  37 C37            6.2314    -9.2573    -9.3200 C.ar    
  38 C38            5.3883    -8.2479    -9.7623 C.ar    
  39 C39            5.0872    -7.1955    -8.9164 C.ar    
  40 N40            5.5853    -7.1427    -7.6985 N.ar    
  41 N41           -3.4981    -0.7042     0.0328 N.pl3   
  42 C42           -3.6305    -2.0581     0.0269 C.2     
  43 N43           -4.9017    -2.3506     0.0383 N.2     
  44 C44           -5.6197    -1.2171     0.0517 C.2     
  45 C45           -4.7654    -0.1772     0.0537 C.2     
  46 H46            1.2086     3.2040     0.0074 H       
  47 H47            3.1656     3.3907    -1.6529 H       
  48 H48            5.3410     4.5392    -1.6602 H       
  49 H49            7.0821     3.8955    -0.0456 H       
  50 H50            6.6586     2.1006     1.5828 H       
  51 H51            4.4871     0.9450     1.6091 H       
  52 H52            2.8084    -2.3811     1.1918 H       
  53 H53            4.9070    -3.6638     1.1578 H       
  54 H54            6.7156    -0.6743    -1.2902 H       
  55 H55            4.6234     0.6192    -1.2744 H       
  56 H56            8.0637    -2.3532    -0.1783 H       
  57 H57            7.3093    -3.6002     0.8434 H       
  58 H58           -1.3165     3.1507     0.0377 H       
  59 H59            9.2840    -3.7958    -1.4992 H       
  60 H60            8.7596    -5.2130    -0.5589 H       
  61 H61            8.3037    -4.7832    -3.5468 H       
  62 H62            9.4962    -5.8896    -2.8224 H       
  63 H63            7.6830    -7.1658    -1.7403 H       
  64 H64            5.8321    -5.2086    -3.1787 H       
  65 H65            5.3243    -6.6077    -2.2011 H       
  66 H66            6.4079    -5.6178    -0.2087 H       
  67 H67            5.2050    -4.4979    -0.8917 H       
  68 H68            6.1346    -6.1985    -5.1005 H       
  69 H69            7.4049    -9.9426    -7.6612 H       
  70 H70            6.4813   -10.0889    -9.9623 H       
  71 H71            4.9713    -8.2834   -10.7579 H       
  72 H72            4.4312    -6.4085    -9.2581 H       
  73 H73           -2.8194    -2.7711     0.0145 H       
  74 H74           -6.6976    -1.1507     0.0630 H       
  75 H75           -5.0268     0.8706     0.0637 H       
@<TRIPOS>BOND
   1    1    2 ar
   2    1    3 ar
   3    1   23 ar
   4    2   20 ar
   5    2    6 ar
   6    3    4 ar
   7    3   46 1
   8    4    5 ar
   9    4    8 1
  10    5    6 ar
  11    5    7 1
  12    7   14 ar
  13    7   18 ar
  14    8    9 ar
  15    8   13 ar
  16    9   10 ar
  17    9   47 1
  18   10   11 ar
  19   10   48 1
  20   11   12 ar
  21   11   49 1
  22   12   13 ar
  23   12   50 1
  24   13   51 1
  25   14   15 ar
  26   14   52 1
  27   15   16 ar
  28   15   53 1
  29   16   17 ar
  30   16   19 1
  31   17   18 ar
  32   17   54 1
  33   18   55 1
  34   19   24 1
  35   19   56 1
  36   19   57 1
  37   20   21 ar
  38   21   22 ar
  39   21   41 1
  40   22   23 ar
  41   23   58 1
  42   24   25 1
  43   24   29 1
  44   25   26 1
  45   25   59 1
  46   25   60 1
  47   26   27 1
  48   26   61 1
  49   26   62 1
  50   27   28 1
  51   27   30 1
  52   27   63 1
  53   28   29 1
  54   28   64 1
  55   28   65 1
  56   29   66 1
  57   29   67 1
  58   30   31 1
  59   30   34 2
  60   31   32 1
  61   31   68 1
  62   32   33 2
  63   32   35 1
  64   33   34 1
  65   35   36 ar
  66   35   40 ar
  67   36   37 ar
  68   36   69 1
  69   37   38 ar
  70   37   70 1
  71   38   39 ar
  72   38   71 1
  73   39   40 ar
  74   39   72 1
  75   41   42 1
  76   41   45 1
  77   42   43 2
  78   42   73 1
  79   43   44 1
  80   44   45 2
  81   44   74 1
  82   45   75 1

#	End of record

