#	Name: ASD00180002
#	Creating user name:	WinNT
#	Creation time:	15. 06. 2019 18:33

#	Modifying user name:	WinNT
#	Modification time:	15. 06. 2019 18:33

#	Program:	/corina/corina34_cracker 3.40 0067  02.08.2006

@<TRIPOS>MOLECULE
ASD00180002
  63   68    0    0    0
SMALL
NO_CHARGES


@<TRIPOS>ATOM
   1 C1             0.3676     1.4589     2.6563 C.ar    
   2 C2             0.3233     0.0909     2.4559 C.ar    
   3 C3             1.4557    -0.5908     2.0478 C.ar    
   4 C4             2.6370     0.0913     1.8383 C.ar    
   5 C5             2.6876     1.4698     2.0386 C.ar    
   6 C6             1.5433     2.1515     2.4498 C.ar    
   7 C7             3.9539     2.2083     1.8156 C.ar    
   8 N8             3.9741     3.5168     2.0132 N.ar    
   9 C9             5.0903     4.2126     1.8241 C.ar    
  10 C10            6.2560     3.5431     1.4100 C.ar    
  11 C11            6.1861     2.1476     1.2117 C.ar    
  12 N12            5.0315     1.5327     1.4293 N.ar    
  13 N13            5.4324     5.5319     1.9381 N.pl3   
  14 N14            6.7889     5.6257     1.5919 N.2     
  15 N15            7.2346     4.4558     1.2915 N.2     
  16 C16            4.5540     6.6324     2.3424 C.3     
  17 C17            4.6134     6.7988     3.8390 C.ar    
  18 C18            5.5492     7.6451     4.4037 C.ar    
  19 C19            5.6038     7.7978     5.7765 C.ar    
  20 C20            4.7222     7.1044     6.5846 C.ar    
  21 C21            3.7858     6.2588     6.0198 C.ar    
  22 C22            3.7284     6.1095     4.6467 C.ar    
  23 N23            7.2993     1.4357     0.8050 N.pl3   
  24 C24            7.2472     0.0390     0.7277 C.ar    
  25 C25            7.9838    -0.6310    -0.2406 C.ar    
  26 C26            7.9322    -2.0085    -0.3168 C.ar    
  27 C27            7.1440    -2.7241     0.5747 C.ar    
  28 C28            6.4071    -2.0544     1.5425 C.ar    
  29 C29            6.4633    -0.6774     1.6229 C.ar    
  30 N30            7.0917    -4.1224     0.4972 N.am    
  31 C31            5.9531    -4.7725     0.8092 C.2     
  32 N32            5.9321    -6.1198     0.8361 N.am    
  33 C33            4.7257    -6.7972     1.0536 C.ar    
  34 C34            3.5344    -6.2653     0.5785 C.ar    
  35 C35            2.3458    -6.9348     0.7940 C.ar    
  36 C36            2.3416    -8.1355     1.4838 C.ar    
  37 C37            3.5285    -8.6674     1.9589 C.ar    
  38 C38            4.7201    -8.0043     1.7397 C.ar    
  39 F39            1.1778    -8.7886     1.6941 F       
  40 O40            4.9448    -4.1435     1.0664 O.2     
  41 H41           -0.5207     1.9866     2.9706 H       
  42 H42           -0.5988    -0.4471     2.6190 H       
  43 H43            1.4154    -1.6589     1.8932 H       
  44 H44            3.5205    -0.4420     1.5200 H       
  45 H45            1.5768     3.2195     2.6066 H       
  46 H46            4.8811     7.5540     1.8610 H       
  47 H47            3.5302     6.4092     2.0420 H       
  48 H48            6.2380     8.1868     3.7723 H       
  49 H49            6.3354     8.4584     6.2177 H       
  50 H50            4.7653     7.2231     7.6572 H       
  51 H51            3.0973     5.7169     6.6512 H       
  52 H52            2.9968     5.4489     4.2055 H       
  53 H53            8.1165     1.9041     0.5732 H       
  54 H54            8.5966    -0.0744    -0.9342 H       
  55 H55            8.5047    -2.5294    -1.0699 H       
  56 H56            5.7936    -2.6112     2.2353 H       
  57 H57            5.8902    -0.1565     2.3756 H       
  58 H58            7.8751    -4.6223     0.2191 H       
  59 H59            6.7525    -6.6204     0.7048 H       
  60 H60            3.5372    -5.3286     0.0410 H       
  61 H61            1.4189    -6.5215     0.4246 H       
  62 H62            3.5231    -9.6037     2.4970 H       
  63 H63            5.6457    -8.4196     2.1100 H       
@<TRIPOS>BOND
   1    1    2 ar
   2    1    6 ar
   3    1   41 1
   4    2    3 ar
   5    2   42 1
   6    3    4 ar
   7    3   43 1
   8    4    5 ar
   9    4   44 1
  10    5    6 ar
  11    5    7 1
  12    6   45 1
  13    7    8 ar
  14    7   12 ar
  15    8    9 ar
  16    9   10 ar
  17    9   13 1
  18   10   11 ar
  19   10   15 1
  20   11   12 ar
  21   11   23 1
  22   13   14 1
  23   13   16 1
  24   14   15 2
  25   16   17 1
  26   16   46 1
  27   16   47 1
  28   17   18 ar
  29   17   22 ar
  30   18   19 ar
  31   18   48 1
  32   19   20 ar
  33   19   49 1
  34   20   21 ar
  35   20   50 1
  36   21   22 ar
  37   21   51 1
  38   22   52 1
  39   23   24 1
  40   23   53 1
  41   24   25 ar
  42   24   29 ar
  43   25   26 ar
  44   25   54 1
  45   26   27 ar
  46   26   55 1
  47   27   28 ar
  48   27   30 1
  49   28   29 ar
  50   28   56 1
  51   29   57 1
  52   30   31 am
  53   30   58 1
  54   31   32 am
  55   31   40 2
  56   32   33 1
  57   32   59 1
  58   33   34 ar
  59   33   38 ar
  60   34   35 ar
  61   34   60 1
  62   35   36 ar
  63   35   61 1
  64   36   37 ar
  65   36   39 1
  66   37   38 ar
  67   37   62 1
  68   38   63 1

#	End of record

