#	Name: ASD06660234
#	Creating user name:	WinNT
#	Creation time:	15. 06. 2019 21:08

#	Modifying user name:	WinNT
#	Modification time:	15. 06. 2019 21:08

#	Program:	/corina/corina34_cracker 3.40 0067  02.08.2006

@<TRIPOS>MOLECULE
ASD06660234
  73   76    0    0    0
SMALL
NO_CHARGES


@<TRIPOS>ATOM
   1 C1             0.3079     1.7118    -0.3937 C.2     
   2 C2             0.1125     0.2566    -0.0544 C.3     
   3 C3            -0.7775    -0.3987    -1.1124 C.3     
   4 O4             1.4196     2.1422    -0.5909 O.2     
   5 O5            -0.7534     2.5288    -0.4823 O.3     
   6 C6            -1.0737    -1.8202    -0.7092 C.ar    
   7 C7            -2.1842    -2.1003     0.0659 C.ar    
   8 C8            -2.4585    -3.4019     0.4372 C.ar    
   9 C9            -1.6176    -4.4303     0.0311 C.ar    
  10 C10           -0.5030    -4.1454    -0.7474 C.ar    
  11 C11           -0.2376    -2.8422    -1.1199 C.ar    
  12 N12           -1.8919    -5.7478     0.4052 N.3     
  13 C13           -0.8803    -6.6681    -0.1296 C.3     
  14 C14           -1.2896    -8.1110     0.1749 C.3     
  15 C15           -1.4199    -8.2905     1.6900 C.3     
  16 C16           -2.4439    -7.2875     2.2286 C.3     
  17 C17           -2.0011    -5.8686     1.8646 C.3     
  18 C18           -1.8879    -9.7142     1.9978 C.3     
  19 N19           -1.8977    -9.9223     3.4479 N.pl3   
  20 C20           -2.2901   -11.1487     3.9714 C.ar    
  21 C21           -2.6724   -12.1745     3.1126 C.ar    
  22 C22           -3.0605   -13.3895     3.6471 C.ar    
  23 C23           -3.0533   -13.5389     5.0278 C.ar    
  24 C24           -2.6622   -12.4788     5.8205 C.ar    
  25 N25           -2.2916   -11.3321     5.2826 N.ar    
  26 C26            2.1612    -0.3894     1.0956 C.2     
  27 C27            3.4992    -1.0823     1.1257 C.3     
  28 C28            4.4547    -0.3888     0.1525 C.3     
  29 O29            1.7577     0.1930     2.0799 O.2     
  30 N30            1.4131    -0.4170    -0.0251 N.am    
  31 C31            4.0674    -1.0171     2.5199 C.ar    
  32 C32            3.4218    -1.6590     3.5601 C.ar    
  33 C33            3.9430    -1.5992     4.8390 C.ar    
  34 C34            5.1101    -0.8978     5.0777 C.ar    
  35 C35            5.7562    -0.2566     4.0373 C.ar    
  36 C36            5.2373    -0.3201     2.7576 C.ar    
  37 C37            3.3251    -2.5455     0.7138 C.3     
  38 H38           -0.3625     0.1721     0.9230 H       
  39 H39           -1.7114     0.1572    -1.1965 H       
  40 H40           -0.2636    -0.3932    -2.0736 H       
  41 H41           -0.5782     3.4539    -0.7025 H       
  42 H42           -2.8374    -1.3003     0.3816 H       
  43 H43           -3.3257    -3.6200     1.0428 H       
  44 H44            0.1528    -4.9426    -1.0648 H       
  45 H45            0.6261    -2.6206    -1.7291 H       
  46 H46           -0.8005    -6.5332    -1.2082 H       
  47 H47            0.0833    -6.4583     0.3348 H       
  48 H48           -2.2465    -8.3258    -0.3006 H       
  49 H49           -0.5308    -8.7931    -0.2084 H       
  50 H50           -0.4535    -8.1136     2.1622 H       
  51 H51           -3.4190    -7.4894     1.7854 H       
  52 H52           -2.5097    -7.3814     3.3126 H       
  53 H53           -1.0323    -5.6625     2.3196 H       
  54 H54           -2.7354    -5.1529     2.2343 H       
  55 H55           -2.8935    -9.8594     1.6031 H       
  56 H56           -1.2085   -10.4285     1.5328 H       
  57 H57           -1.6304    -9.2042     4.0427 H       
  58 H58           -2.6664   -12.0238     2.0432 H       
  59 H59           -3.3626   -14.2038     3.0052 H       
  60 H60           -3.3511   -14.4749     5.4767 H       
  61 H61           -2.6552   -12.5907     6.8947 H       
  62 H62            4.5787     0.6536     0.4460 H       
  63 H63            5.4224    -0.8900     0.1743 H       
  64 H64            4.0436    -0.4360    -0.8559 H       
  65 H65            1.7359    -0.8828    -0.8124 H       
  66 H66            2.5100    -2.2070     3.3737 H       
  67 H67            3.4383    -2.1001     5.6519 H       
  68 H68            5.5169    -0.8504     6.0770 H       
  69 H69            6.6678     0.2916     4.2238 H       
  70 H70            5.7440     0.1777     1.9441 H       
  71 H71            2.9141    -2.5927    -0.2946 H       
  72 H72            4.2928    -3.0467     0.7355 H       
  73 H73            2.6444    -3.0396     1.4071 H       
@<TRIPOS>BOND
   1    1    2 1
   2    1    4 2
   3    1    5 1
   4    2    3 1
   5    2   30 1
   6    2   38 1
   7    3    6 1
   8    3   39 1
   9    3   40 1
  10    5   41 1
  11    6    7 ar
  12    6   11 ar
  13    7    8 ar
  14    7   42 1
  15    8    9 ar
  16    8   43 1
  17    9   10 ar
  18    9   12 1
  19   10   11 ar
  20   10   44 1
  21   11   45 1
  22   12   13 1
  23   12   17 1
  24   13   14 1
  25   13   46 1
  26   13   47 1
  27   14   15 1
  28   14   48 1
  29   14   49 1
  30   15   16 1
  31   15   18 1
  32   15   50 1
  33   16   17 1
  34   16   51 1
  35   16   52 1
  36   17   53 1
  37   17   54 1
  38   18   19 1
  39   18   55 1
  40   18   56 1
  41   19   20 1
  42   19   57 1
  43   20   21 ar
  44   20   25 ar
  45   21   22 ar
  46   21   58 1
  47   22   23 ar
  48   22   59 1
  49   23   24 ar
  50   23   60 1
  51   24   25 ar
  52   24   61 1
  53   26   27 1
  54   26   29 2
  55   26   30 am
  56   27   28 1
  57   27   31 1
  58   27   37 1
  59   28   62 1
  60   28   63 1
  61   28   64 1
  62   30   65 1
  63   31   32 ar
  64   31   36 ar
  65   32   33 ar
  66   32   66 1
  67   33   34 ar
  68   33   67 1
  69   34   35 ar
  70   34   68 1
  71   35   36 ar
  72   35   69 1
  73   36   70 1
  74   37   71 1
  75   37   72 1
  76   37   73 1

#	End of record

