#	Name: ASD01870243
#	Creating user name:	WinNT
#	Creation time:	15. 06. 2019 19:38

#	Modifying user name:	WinNT
#	Modification time:	15. 06. 2019 19:38

#	Program:	/corina/corina34_cracker 3.40 0067  02.08.2006

@<TRIPOS>MOLECULE
ASD01870243
  55   59    0    0    0
SMALL
NO_CHARGES


@<TRIPOS>ATOM
   1 C1             0.2252     1.1328    -0.1985 C.ar    
   2 C2             0.3292    -0.2559    -0.1868 C.ar    
   3 C3             1.5461    -0.8702    -0.1720 C.ar    
   4 C4             2.7129    -0.0942    -0.1690 C.ar    
   5 C5             2.6067     1.3229    -0.1814 C.ar    
   6 C6             1.3379     1.9199    -0.1959 C.ar    
   7 C7             3.9953    -0.6735    -0.1544 C.ar    
   8 N8             5.0640     0.0796    -0.1519 N.ar    
   9 C9             5.0101     1.4185    -0.1633 C.ar    
  10 C10            3.7898     2.0728    -0.1785 C.ar    
  11 C11            6.0795     2.4404    -0.1636 C.2     
  12 N12            5.5474     3.6742    -0.1783 N.am    
  13 C13            4.0852     3.5501    -0.1887 C.3     
  14 C14            6.2999     4.9312    -0.1821 C.3     
  15 C15            7.1754     5.0081     1.0725 C.3     
  16 C16            8.1971     3.8683     1.0430 C.3     
  17 O17            8.9782     3.9614    -0.1501 O.3     
  18 C18            8.2185     3.8483    -1.3551 C.3     
  19 C19            7.1976     4.9872    -1.4220 C.3     
  20 C20            4.1379    -2.1737    -0.1409 C.3     
  21 C21            4.1963    -2.6854    -1.5572 C.ar    
  22 C22            5.4095    -2.8100    -2.2060 C.ar    
  23 N23            5.4693    -3.2571    -3.4456 N.ar    
  24 C24            4.3836    -3.6014    -4.1118 C.ar    
  25 C25            3.1336    -3.5033    -3.5261 C.ar    
  26 C26            3.0330    -3.0425    -2.2231 C.ar    
  27 O27            7.2706     2.1984    -0.1522 O.2     
  28 O28            6.3548     4.8838     2.2358 O.3     
  29 Cl29           4.5248    -4.1833    -5.7412 Cl      
  30 C30            3.7537     5.7028    -1.4127 C.3     
  31 C31            3.5115     4.1926    -1.4532 C.3     
  32 H32           -0.7517     1.5930    -0.2144 H       
  33 H33           -0.5688    -0.8559    -0.1892 H       
  34 H34            1.6105    -1.9483    -0.1623 H       
  35 H35            1.2431     2.9957    -0.2058 H       
  36 H36            3.6624     4.0230     0.6977 H       
  37 H37            5.6059     5.7716    -0.1945 H       
  38 H38            7.6974     5.9647     1.0944 H       
  39 H39            8.8506     3.9434     1.9121 H       
  40 H40            7.6751     2.9117     1.0620 H       
  41 H41            8.8874     3.9089    -2.2136 H       
  42 H42            7.6967     2.8913    -1.3675 H       
  43 H43            6.5876     4.8775    -2.3186 H       
  44 H44            7.7201     5.9434    -1.4505 H       
  45 H45            5.0543    -2.4469     0.3822 H       
  46 H46            3.2823    -2.6154     0.3700 H       
  47 H47            6.3197    -2.5378    -1.6925 H       
  48 H48            2.2481    -3.7858    -4.0761 H       
  49 H49            2.0709    -2.9558    -1.7402 H       
  50 H50            6.8445     4.9239     3.0687 H       
  51 H51            3.4698     6.0902    -0.4343 H       
  52 H52            4.8095     5.9064    -1.5917 H       
  53 H53            3.1545     6.1877    -2.1834 H       
  54 H54            4.0014     3.7694    -2.3301 H       
  55 H55            2.4404     3.9977    -1.5059 H       
@<TRIPOS>BOND
   1    1    2 ar
   2    1    6 ar
   3    1   32 1
   4    2    3 ar
   5    2   33 1
   6    3    4 ar
   7    3   34 1
   8    4    5 ar
   9    4    7 ar
  10    5    6 ar
  11    5   10 ar
  12    6   35 1
  13    7    8 ar
  14    7   20 1
  15    8    9 ar
  16    9   10 ar
  17    9   11 1
  18   10   13 1
  19   11   12 am
  20   11   27 2
  21   12   13 1
  22   12   14 1
  23   13   31 1
  24   13   36 1
  25   14   15 1
  26   14   19 1
  27   14   37 1
  28   15   16 1
  29   15   28 1
  30   15   38 1
  31   16   17 1
  32   16   39 1
  33   16   40 1
  34   17   18 1
  35   18   19 1
  36   18   41 1
  37   18   42 1
  38   19   43 1
  39   19   44 1
  40   20   21 1
  41   20   45 1
  42   20   46 1
  43   21   22 ar
  44   21   26 ar
  45   22   23 ar
  46   22   47 1
  47   23   24 ar
  48   24   25 ar
  49   24   29 1
  50   25   26 ar
  51   25   48 1
  52   26   49 1
  53   28   50 1
  54   30   31 1
  55   30   51 1
  56   30   52 1
  57   30   53 1
  58   31   54 1
  59   31   55 1

#	End of record

