#	Name: ASD05430263
#	Creating user name:	WinNT
#	Creation time:	15. 06. 2019 21:00

#	Modifying user name:	WinNT
#	Modification time:	15. 06. 2019 21:00

#	Program:	/corina/corina34_cracker 3.40 0067  02.08.2006

@<TRIPOS>MOLECULE
ASD05430263
  85   91    0    0    0
SMALL
NO_CHARGES


@<TRIPOS>ATOM
   1 C1             1.0753     1.0142    -1.4910 C.ar    
   2 C2             0.2613     0.7098    -0.4029 C.ar    
   3 C3             0.5740     1.2077     0.8532 C.ar    
   4 C4             1.6909     2.0035     1.0223 C.ar    
   5 C5             2.4988     2.3060    -0.0585 C.ar    
   6 C6             2.1937     1.8131    -1.3133 C.ar    
   7 C7             4.9679     1.2927     1.1991 C.3     
   8 C8             4.4687     2.7296     1.3848 C.3     
   9 C9             3.7149     3.1753     0.1322 C.3     
  10 C10            3.7750     0.3334     1.2553 C.3     
  11 C11            3.0380     0.2964     2.6009 C.3     
  12 N12            2.8312     1.6781     3.0361 N.pl3   
  13 C13            3.5369     2.7742     2.5754 C.2     
  14 N14            3.2943     3.8030     3.3094 N.2     
  15 N15           -0.8730    -0.0985    -0.5771 N.pl3   
  16 C16           -1.1558    -1.2606     0.0922 C.2     
  17 C17           -2.3351    -1.7066    -0.3814 C.2     
  18 N18           -2.7645    -0.8441    -1.3143 N.2     
  19 C19           -1.9002     0.1265    -1.4364 C.2     
  20 C20           -3.0486    -2.9583     0.0605 C.3     
  21 C21            1.8562     2.1843     4.0082 C.3     
  22 O22            2.3971     3.4749     4.3589 O.3     
  23 C23            0.4964     2.3293     3.3748 C.ar    
  24 O24            0.7767     0.5244    -2.7236 O.3     
  25 C25            1.7901     1.2724     5.2350 C.3     
  26 C26           -0.4533     1.3390     3.5435 C.ar    
  27 C27           -1.0489     3.5896     2.0493 C.ar    
  28 C28            0.1979     3.4553     2.6303 C.ar    
  29 C29           -1.9989     2.5957     2.2128 C.ar    
  30 F30           -3.2180     2.7259     1.6454 F       
  31 C31           -1.7005     1.4709     2.9631 C.ar    
  32 C32            4.6329     3.0447    -1.0880 C.3     
  33 C33            5.6585     3.6554     1.6374 C.3     
  34 C34            6.6485     3.5419     0.4731 C.3     
  35 C35            5.9066     3.8143    -0.8167 C.2     
  36 O36            6.3209     4.6253    -1.6099 O.2     
  37 O37            5.1989     5.0043     1.7424 O.3     
  38 C38            5.9968     5.8254     2.5976 C.3     
  39 C39            1.6563     0.8780    -3.7928 C.3     
  40 C40            2.9443     0.1531    -0.0137 C.3     
  41 C41            3.8696    -0.9690     0.4627 C.3     
  42 C42            0.6798     1.7556     6.1703 C.3     
  43 S43            0.6015     0.6744     7.6248 S.o2    
  44 C44           -0.7537     1.4195     8.5730 C.3     
  45 O45            0.2002    -0.6222     7.2041 O.2     
  46 O46            1.8060     0.8222     8.3641 O.2     
  47 H47           -0.0555     0.9736     1.6990 H       
  48 H48            1.9334     2.3906     2.0010 H       
  49 H49            2.8268     2.0508    -2.1553 H       
  50 H50            5.4634     1.2014     0.2325 H       
  51 H51            5.6713     1.0460     1.9944 H       
  52 H52            3.4051     4.2143     0.2447 H       
  53 H53            2.0754    -0.2007     2.4809 H       
  54 H54            3.6401    -0.2362     3.3370 H       
  55 H55           -0.5491    -1.7292     0.8530 H       
  56 H56           -1.9844     0.9644    -2.1126 H       
  57 H57           -3.7144    -2.7230     0.8908 H       
  58 H58           -3.6307    -3.3572    -0.7703 H       
  59 H59           -2.3168    -3.6999     0.3805 H       
  60 H60            1.5791     0.2512     4.9177 H       
  61 H61            2.7449     1.2999     5.7599 H       
  62 H62           -0.2203     0.4617     4.1287 H       
  63 H63           -1.2818     4.4691     1.4675 H       
  64 H64            0.9391     4.2304     2.5029 H       
  65 H65           -2.4421     0.6968     3.0944 H       
  66 H66            4.8691     1.9942    -1.2576 H       
  67 H67            4.1359     3.4573    -1.9659 H       
  68 H68            6.1533     3.3665     2.5647 H       
  69 H69            7.4463     4.2740     0.5983 H       
  70 H70            7.0703     2.5372     0.4478 H       
  71 H71            7.0175     5.8621     2.2171 H       
  72 H72            5.5823     6.8332     2.6239 H       
  73 H73            5.9991     5.4071     3.6041 H       
  74 H74            1.6744     1.9621    -3.9050 H       
  75 H75            2.6612     0.5190    -3.5705 H       
  76 H76            1.3044     0.4228    -4.7185 H       
  77 H77            1.8710     0.0046     0.1042 H       
  78 H78            3.2474     0.7143    -0.8976 H       
  79 H79            4.7814    -1.1459    -0.1079 H       
  80 H80            3.4050    -1.8556     0.8940 H       
  81 H81            0.8908     2.7768     6.4876 H       
  82 H82           -0.2750     1.7281     5.6454 H       
  83 H83           -1.6664     1.4020     7.9774 H       
  84 H84           -0.9084     0.8537     9.4917 H       
  85 H85           -0.5005     2.4506     8.8196 H       
@<TRIPOS>BOND
   1    1    2 ar
   2    1    6 ar
   3    1   24 1
   4    2    3 ar
   5    2   15 1
   6    3    4 ar
   7    3   47 1
   8    4    5 ar
   9    4   48 1
  10    5    6 ar
  11    5    9 1
  12    6   49 1
  13    7    8 1
  14    7   10 1
  15    7   50 1
  16    7   51 1
  17    8    9 1
  18    8   33 1
  19    8   13 1
  20    9   32 1
  21    9   52 1
  22   10   11 1
  23   10   40 1
  24   10   41 1
  25   11   12 1
  26   11   53 1
  27   11   54 1
  28   12   13 1
  29   12   21 1
  30   13   14 2
  31   14   22 1
  32   15   16 1
  33   15   19 1
  34   16   17 2
  35   16   55 1
  36   17   18 1
  37   17   20 1
  38   18   19 2
  39   19   56 1
  40   20   57 1
  41   20   58 1
  42   20   59 1
  43   21   22 1
  44   21   23 1
  45   21   25 1
  46   23   26 ar
  47   23   28 ar
  48   24   39 1
  49   25   42 1
  50   25   60 1
  51   25   61 1
  52   26   31 ar
  53   26   62 1
  54   27   28 ar
  55   27   29 ar
  56   27   63 1
  57   28   64 1
  58   29   30 1
  59   29   31 ar
  60   31   65 1
  61   32   35 1
  62   32   66 1
  63   32   67 1
  64   33   34 1
  65   33   37 1
  66   33   68 1
  67   34   35 1
  68   34   69 1
  69   34   70 1
  70   35   36 2
  71   37   38 1
  72   38   71 1
  73   38   72 1
  74   38   73 1
  75   39   74 1
  76   39   75 1
  77   39   76 1
  78   40   41 1
  79   40   77 1
  80   40   78 1
  81   41   79 1
  82   41   80 1
  83   42   43 1
  84   42   81 1
  85   42   82 1
  86   43   44 1
  87   43   45 2
  88   43   46 2
  89   44   83 1
  90   44   84 1
  91   44   85 1

#	End of record

