#	Name: ASD03320014
#	Creating user name:	WinNT
#	Creation time:	15. 06. 2019 20:35

#	Modifying user name:	WinNT
#	Modification time:	15. 06. 2019 20:35

#	Program:	/corina/corina34_cracker 3.40 0067  02.08.2006

@<TRIPOS>MOLECULE
ASD03320014
  63   67    0    0    0
SMALL
NO_CHARGES


@<TRIPOS>ATOM
   1 C1             2.9493    -2.3554    -1.9612 C.ar    
   2 C2             1.7112    -1.8634    -1.5485 C.ar    
   3 C3             4.0836    -1.5914    -1.7980 C.ar    
   4 C4             3.9937    -0.3237    -1.2191 C.ar    
   5 C5             2.7536     0.1680    -0.8062 C.ar    
   6 C6             1.6205    -0.5975    -0.9702 C.ar    
   7 C7             5.2106     0.4969    -1.0430 C.2     
   8 N8             6.3619    -0.0813    -0.6472 N.am    
   9 O9             5.1729     1.6932    -1.2551 O.2     
  10 C10            0.4902    -2.6868    -1.7252 C.ar    
  11 C11           -0.7514    -2.2066    -1.3171 C.ar    
  12 C12           -1.8681    -3.0211    -1.5061 C.ar    
  13 N13           -1.7069    -4.2175    -2.0648 N.ar    
  14 C14           -0.5138    -4.6358    -2.4376 C.ar    
  15 N15            0.5640    -3.8965    -2.2824 N.ar    
  16 N16           -3.1272    -2.5902    -1.1168 N.pl3   
  17 C17           -4.2541    -3.3649    -1.4125 C.ar    
  18 C18           -5.3683    -3.3160    -0.5850 C.ar    
  19 C19           -6.4796    -4.0816    -0.8788 C.ar    
  20 C20           -6.4834    -4.8976    -1.9976 C.ar    
  21 C21           -5.3733    -4.9483    -2.8238 C.ar    
  22 C22           -4.2622    -4.1797    -2.5372 C.ar    
  23 C23            7.6085     0.6951    -0.5921 C.3     
  24 C24            8.1933     0.5834     0.8214 C.3     
  25 N25            8.2245    -0.8347     1.2060 N.am    
  26 C26            6.9779    -1.6111     1.1508 C.3     
  27 C27            6.3920    -1.4980    -0.2573 C.3     
  28 C28            9.3758    -1.4130     1.6017 C.2     
  29 C29            9.4161    -2.8642     1.8815 C.ar    
  30 O30           10.3810    -0.7414     1.7287 O.2     
  31 C31           10.4457    -3.6498     1.3615 C.ar    
  32 C32           10.4774    -5.0035     1.6264 C.ar    
  33 C33            9.4917    -5.5823     2.4055 C.ar    
  34 C34            8.4677    -4.8090     2.9238 C.ar    
  35 C35            8.4277    -3.4535     2.6717 C.ar    
  36 F36           -7.5715    -5.6457    -2.2831 F       
  37 C37            7.3978    -5.4482     3.7710 C.3     
  38 F38            7.6538    -6.8184     3.8901 F       
  39 F39            7.3966    -4.8619     5.0413 F       
  40 F40            6.1498    -5.2576     3.1683 F       
  41 H41            3.0192    -3.3376    -2.4049 H       
  42 H42            5.0423    -1.9727    -2.1173 H       
  43 H43            2.6832     1.1481    -0.3580 H       
  44 H44            0.6613    -0.2174    -0.6509 H       
  45 H45           -0.8473    -1.2299    -0.8662 H       
  46 H46           -0.4185    -5.6126    -2.8882 H       
  47 H47           -3.2268    -1.7517    -0.6395 H       
  48 H48           -5.3656    -2.6800     0.2879 H       
  49 H49           -7.3462    -4.0441    -0.2353 H       
  50 H50           -5.3782    -5.5859    -3.6955 H       
  51 H51           -3.3966    -4.2195    -3.1819 H       
  52 H52            8.3202     0.2963    -1.3150 H       
  53 H53            7.3989     1.7402    -0.8197 H       
  54 H54            9.2056     0.9875     0.8315 H       
  55 H55            7.5682     1.1384     1.5208 H       
  56 H56            7.1875    -2.6563     1.3784 H       
  57 H57            6.2662    -1.2123     1.8737 H       
  58 H58            5.3798    -1.9024    -0.2660 H       
  59 H59            7.0159    -2.0518    -0.9587 H       
  60 H60           11.2157    -3.1992     0.7529 H       
  61 H61           11.2735    -5.6127     1.2243 H       
  62 H62            9.5211    -6.6424     2.6099 H       
  63 H63            7.6280    -2.8511     3.0768 H       
@<TRIPOS>BOND
   1    1    2 ar
   2    1    3 ar
   3    1   41 1
   4    2   10 1
   5    2    6 ar
   6    3    4 ar
   7    3   42 1
   8    4    5 ar
   9    4    7 1
  10    5    6 ar
  11    5   43 1
  12    6   44 1
  13    7    8 am
  14    7    9 2
  15    8   23 1
  16    8   27 1
  17   10   11 ar
  18   10   15 ar
  19   11   12 ar
  20   11   45 1
  21   12   13 ar
  22   12   16 1
  23   13   14 ar
  24   14   15 ar
  25   14   46 1
  26   16   17 1
  27   16   47 1
  28   17   18 ar
  29   17   22 ar
  30   18   19 ar
  31   18   48 1
  32   19   20 ar
  33   19   49 1
  34   20   21 ar
  35   20   36 1
  36   21   22 ar
  37   21   50 1
  38   22   51 1
  39   23   24 1
  40   23   52 1
  41   23   53 1
  42   24   25 1
  43   24   54 1
  44   24   55 1
  45   25   26 1
  46   25   28 am
  47   26   27 1
  48   26   56 1
  49   26   57 1
  50   27   58 1
  51   27   59 1
  52   28   29 1
  53   28   30 2
  54   29   31 ar
  55   29   35 ar
  56   31   32 ar
  57   31   60 1
  58   32   33 ar
  59   32   61 1
  60   33   34 ar
  61   33   62 1
  62   34   35 ar
  63   34   37 1
  64   35   63 1
  65   37   38 1
  66   37   39 1
  67   37   40 1

#	End of record

