#	Name: ASD01885414
#	Creating user name:	WinNT
#	Creation time:	15. 06. 2019 19:49

#	Modifying user name:	WinNT
#	Modification time:	15. 06. 2019 19:49

#	Program:	/corina/corina34_cracker 3.40 0067  02.08.2006

@<TRIPOS>MOLECULE
ASD01885414
  33   36    0    0    0
SMALL
NO_CHARGES


@<TRIPOS>ATOM
   1 C1            -0.1223     1.5086    -0.0135 C.ar    
   2 C2            -0.0959     0.1273     0.1736 C.ar    
   3 N3            -1.2023    -0.6590     0.1622 N.2     
   4 C4            -2.1952    -0.5677    -0.6576 C.2     
   5 C5            -2.2496     0.4998    -1.7188 C.3     
   6 C6            -2.2867     1.8424    -1.0338 C.2     
   7 N7            -1.2850     2.2334    -0.2467 N.am    
   8 C8             1.0735     2.2263     0.0252 C.ar    
   9 C9             2.2752     1.5845     0.2420 C.ar    
  10 C10            2.3057     0.2116     0.4244 C.ar    
  11 C11            1.1366    -0.5126     0.3917 C.ar    
  12 C12           -3.2589    -1.4931    -0.5566 C.2     
  13 O13           -3.2387     2.5751    -1.2016 O.2     
  14 Br14           3.8825     2.5796     0.2894 Br      
  15 C15           -4.5170    -1.3781    -1.1289 C.2     
  16 N16           -5.2209    -2.4505    -0.7994 N.2     
  17 C17           -4.4837    -3.2587    -0.0407 C.2     
  18 N18           -3.2490    -2.6943     0.1272 N.pl3   
  19 C19           -4.7655    -4.5011     0.5559 C.2     
  20 C20           -3.8043    -5.1204     1.2970 C.2     
  21 C21           -2.5504    -4.5124     1.4544 C.2     
  22 C22           -2.2950    -3.3209     0.8685 C.2     
  23 H23           -1.3649     0.4343    -2.3521 H       
  24 H24           -3.1467     0.3709    -2.3245 H       
  25 H25           -1.3747     3.0900     0.1994 H       
  26 H26            1.0582     3.2969    -0.1164 H       
  27 H27            3.2473    -0.2901     0.5921 H       
  28 H28            1.1659    -1.5827     0.5348 H       
  29 H29           -4.8630    -0.5560    -1.7377 H       
  30 H30           -5.7350    -4.9596     0.4280 H       
  31 H31           -4.0071    -6.0744     1.7610 H       
  32 H32           -1.7855    -4.9992     2.0412 H       
  33 H33           -1.3267    -2.8596     0.9944 H       
@<TRIPOS>BOND
   1    1    2 ar
   2    1    8 ar
   3    1    7 1
   4    2    3 1
   5    2   11 ar
   6    3    4 2
   7    4    5 1
   8    4   12 1
   9    5    6 1
  10    5   23 1
  11    5   24 1
  12    6    7 am
  13    6   13 2
  14    7   25 1
  15    8    9 ar
  16    8   26 1
  17    9   10 ar
  18    9   14 1
  19   10   11 ar
  20   10   27 1
  21   11   28 1
  22   12   15 2
  23   12   18 1
  24   15   16 1
  25   15   29 1
  26   16   17 2
  27   17   18 1
  28   17   19 1
  29   18   22 1
  30   19   20 2
  31   19   30 1
  32   20   21 1
  33   20   31 1
  34   21   22 2
  35   21   32 1
  36   22   33 1

#	End of record

