#	Name: ASD02500026
#	Creating user name:	WinNT
#	Creation time:	15. 06. 2019 20:22

#	Modifying user name:	WinNT
#	Modification time:	15. 06. 2019 20:22

#	Program:	/corina/corina34_cracker 3.40 0067  02.08.2006

@<TRIPOS>MOLECULE
ASD02500026
  74   76    0    0    0
SMALL
NO_CHARGES


@<TRIPOS>ATOM
   1 C1            -0.0183     1.3760    -0.0168 C.ar    
   2 C2             1.0233     1.8354    -0.8017 C.ar    
   3 C3             2.2312     1.1658    -0.8098 C.ar    
   4 C4             2.3992     0.0303    -0.0282 C.ar    
   5 C5             1.3514    -0.4282     0.7593 C.ar    
   6 C6             0.1458     0.2457     0.7627 C.ar    
   7 N7             3.6217    -0.6508    -0.0346 N.am    
   8 C8             4.7757     0.0369    -0.1436 C.2     
   9 N9             5.9556    -0.6085    -0.0563 N.am    
  10 O10            4.7522     1.2396    -0.3208 O.2     
  11 C11            7.2100     0.1391    -0.1748 C.3     
  12 C12            5.9839    -2.0576     0.1572 C.3     
  13 C13            5.9843    -2.7617    -1.1752 C.ar    
  14 C14            7.1823    -3.0624    -1.7966 C.ar    
  15 C15            7.1853    -3.7078    -3.0180 C.ar    
  16 C16            5.9849    -4.0542    -3.6211 C.ar    
  17 C17            4.7842    -3.7513    -2.9956 C.ar    
  18 C18            4.7867    -3.1109    -1.7716 C.ar    
  19 O19            5.9853    -4.6887    -4.8229 O.3     
  20 C20            4.7124    -5.0149    -5.3846 C.3     
  21 C21            7.6561     0.6097     1.2110 C.3     
  22 C22            9.0270     1.2816     1.1044 C.3     
  23 C23            9.4859     1.7205     2.4985 C.3     
  24 N24            8.4436     2.5672     3.0947 N.am    
  25 C25            7.0691     2.0525     3.1638 C.3     
  26 C26            6.6373     1.6099     1.7622 C.3     
  27 C27            8.7426     3.7926     3.5695 C.2     
  28 O28            7.7775     4.5579     4.1133 O.3     
  29 O29            9.8833     4.2067     3.5069 O.2     
  30 C30            8.1719     5.8662     4.6042 C.3     
  31 C31            8.7497     6.6904     3.4519 C.3     
  32 C32            6.9503     6.5837     5.1819 C.3     
  33 C33            9.2313     5.7032     5.6960 C.3     
  34 C34           -0.9917    -0.2509     1.6174 C.3     
  35 F35           -0.5887    -1.3980     2.3094 F       
  36 F36           -1.3553     0.7425     2.5329 F       
  37 F37           -2.0871    -0.5582     0.8032 F       
  38 C38            0.8401     3.0677    -1.6496 C.3     
  39 F39            1.2056     4.1994    -0.9127 F       
  40 F40            1.6456     2.9734    -2.7895 F       
  41 F41           -0.5009     3.1744    -2.0337 F       
  42 H42           -0.9606     1.9038    -0.0090 H       
  43 H43            3.0441     1.5246    -1.4236 H       
  44 H44            1.4788    -1.3112     1.3680 H       
  45 H45            3.6386    -1.6178     0.0395 H       
  46 H46            7.9775    -0.5048    -0.6044 H       
  47 H47            7.0579     1.0038    -0.8207 H       
  48 H48            6.8841    -2.3259     0.7102 H       
  49 H49            5.1045    -2.3581     0.7267 H       
  50 H50            8.1165    -2.7922    -1.3268 H       
  51 H51            8.1213    -3.9422    -3.5031 H       
  52 H52            3.8485    -4.0200    -3.4632 H       
  53 H53            3.8523    -2.8749    -1.2843 H       
  54 H54            4.8555    -5.5169    -6.3415 H       
  55 H55            4.1738    -5.6752    -4.7049 H       
  56 H56            4.1372    -4.1015    -5.5359 H       
  57 H57            7.7228    -0.2471     1.8814 H       
  58 H58            9.7468     0.5758     0.6899 H       
  59 H59            8.9553     2.1532     0.4538 H       
  60 H60            9.6453     0.8422     3.1241 H       
  61 H61           10.4138     2.2865     2.4164 H       
  62 H62            7.0315     1.2013     3.8436 H       
  63 H63            6.4025     2.8376     3.5206 H       
  64 H64            6.5882     2.4784     1.1054 H       
  65 H65            5.6564     1.1378     1.8159 H       
  66 H66            7.9950     6.8065     2.6740 H       
  67 H67            9.0458     7.6725     3.8204 H       
  68 H68            9.6200     6.1792     3.0403 H       
  69 H69            6.5387     5.9965     6.0029 H       
  70 H70            7.2464     7.5658     5.5504 H       
  71 H71            6.1956     6.6998     4.4041 H       
  72 H72           10.1016     5.1921     5.2843 H       
  73 H73            9.5274     6.6854     6.0645 H       
  74 H74            8.8197     5.1161     6.5169 H       
@<TRIPOS>BOND
   1    1    2 ar
   2    1    6 ar
   3    1   42 1
   4    2    3 ar
   5    2   38 1
   6    3    4 ar
   7    3   43 1
   8    4    5 ar
   9    4    7 1
  10    5    6 ar
  11    5   44 1
  12    6   34 1
  13    7    8 am
  14    7   45 1
  15    8    9 am
  16    8   10 2
  17    9   11 1
  18    9   12 1
  19   11   21 1
  20   11   46 1
  21   11   47 1
  22   12   13 1
  23   12   48 1
  24   12   49 1
  25   13   14 ar
  26   13   18 ar
  27   14   15 ar
  28   14   50 1
  29   15   16 ar
  30   15   51 1
  31   16   17 ar
  32   16   19 1
  33   17   18 ar
  34   17   52 1
  35   18   53 1
  36   19   20 1
  37   20   54 1
  38   20   55 1
  39   20   56 1
  40   21   22 1
  41   21   26 1
  42   21   57 1
  43   22   23 1
  44   22   58 1
  45   22   59 1
  46   23   24 1
  47   23   60 1
  48   23   61 1
  49   24   25 1
  50   24   27 am
  51   25   26 1
  52   25   62 1
  53   25   63 1
  54   26   64 1
  55   26   65 1
  56   27   28 1
  57   27   29 2
  58   28   30 1
  59   30   31 1
  60   30   32 1
  61   30   33 1
  62   31   66 1
  63   31   67 1
  64   31   68 1
  65   32   69 1
  66   32   70 1
  67   32   71 1
  68   33   72 1
  69   33   73 1
  70   33   74 1
  71   34   35 1
  72   34   36 1
  73   34   37 1
  74   38   39 1
  75   38   40 1
  76   38   41 1

#	End of record

