#	Name: ASD02198690
#	Creating user name:	WinNT
#	Creation time:	15. 06. 2019 20:20

#	Modifying user name:	WinNT
#	Modification time:	15. 06. 2019 20:20

#	Program:	/corina/corina34_cracker 3.40 0067  02.08.2006

@<TRIPOS>MOLECULE
ASD02198690
  50   54    0    0    0
SMALL
NO_CHARGES


@<TRIPOS>ATOM
   1 F1             2.5340    -1.8908     2.0290 F       
   2 C2            -0.0617     1.5369     0.0784 C.2     
   3 C3            -0.1084     0.1889     0.2264 C.2     
   4 N4             1.0154    -0.5574     0.1377 N.pl3   
   5 N5             2.1753    -0.0595    -0.0861 N.2     
   6 C6             2.3616     1.2330    -0.2489 C.2     
   7 C7             1.1985     2.1311    -0.1708 C.2     
   8 C8             0.9071    -1.9432     0.2988 C.ar    
   9 C9             1.6791    -2.5952     1.2557 C.ar    
  10 C10            1.5708    -3.9639     1.4140 C.ar    
  11 C11            0.6917    -4.6872     0.6181 C.ar    
  12 C12           -0.0788    -4.0350    -0.3374 C.ar    
  13 C13            0.0247    -2.6679    -0.4927 C.ar    
  14 C14            3.7126     1.7721    -0.5048 C.2     
  15 N15            4.0907     2.5454    -1.5663 N.pl3   
  16 N16            5.4529     2.8352    -1.4192 N.2     
  17 C17            5.8880     2.2679    -0.3224 C.2     
  18 C18            4.8277     1.5951     0.2848 C.2     
  19 C19            3.2640     2.9717    -2.6135 C.ar    
  20 C20            3.3547     4.2746    -3.0854 C.ar    
  21 C21            2.5382     4.6918    -4.1181 C.ar    
  22 C22            1.6309     3.8137    -4.6822 C.ar    
  23 C23            1.5379     2.5158    -4.2142 C.ar    
  24 C24            2.3560     2.0906    -3.1859 C.ar    
  25 O25            1.3159     3.3391    -0.3145 O.2     
  26 N26            0.5824    -6.0706     0.7776 N.3     
  27 C27            1.0856    -6.7830    -0.4162 C.3     
  28 C28           -0.8194    -6.4672     1.0048 C.3     
  29 C29           -1.1878    -7.4916    -0.0889 C.3     
  30 C30            0.1933    -8.0442    -0.5296 C.3     
  31 F31           -1.9841    -8.5137     0.4387 F       
  32 F32           -1.8330    -6.8623    -1.1589 F       
  33 H33           -0.9577     2.1363     0.1442 H       
  34 H34           -1.0553    -0.2940     0.4178 H       
  35 H35            2.1696    -4.4709     2.1561 H       
  36 H36           -0.7620    -4.5982    -0.9558 H       
  37 H37           -0.5747    -2.1621    -1.2351 H       
  38 H38            6.8998     2.3160     0.0523 H       
  39 H39            4.8740     1.0313     1.2048 H       
  40 H40            4.0628     4.9609    -2.6451 H       
  41 H41            2.6080     5.7051    -4.4853 H       
  42 H42            0.9935     4.1424    -5.4897 H       
  43 H43            0.8278     1.8326    -4.6564 H       
  44 H44            2.2828     1.0769    -2.8208 H       
  45 H45            0.9766    -6.1600    -1.3039 H       
  46 H46            2.1286    -7.0674    -0.2768 H       
  47 H47           -0.9207    -6.9235     1.9895 H       
  48 H48           -1.4684    -5.5947     0.9295 H       
  49 H49            0.1589    -8.4071    -1.5569 H       
  50 H50            0.5350    -8.8266     0.1480 H       
@<TRIPOS>BOND
   1    1    9 1
   2    2    3 2
   3    2    7 1
   4    2   33 1
   5    3    4 1
   6    3   34 1
   7    4    5 1
   8    4    8 1
   9    5    6 2
  10    6    7 1
  11    6   14 1
  12    7   25 2
  13    8    9 ar
  14    8   13 ar
  15    9   10 ar
  16   10   11 ar
  17   10   35 1
  18   11   12 ar
  19   11   26 1
  20   12   13 ar
  21   12   36 1
  22   13   37 1
  23   14   15 1
  24   14   18 2
  25   15   16 1
  26   15   19 1
  27   16   17 2
  28   17   18 1
  29   17   38 1
  30   18   39 1
  31   19   20 ar
  32   19   24 ar
  33   20   21 ar
  34   20   40 1
  35   21   22 ar
  36   21   41 1
  37   22   23 ar
  38   22   42 1
  39   23   24 ar
  40   23   43 1
  41   24   44 1
  42   26   28 1
  43   26   27 1
  44   27   30 1
  45   27   45 1
  46   27   46 1
  47   28   29 1
  48   28   47 1
  49   28   48 1
  50   29   30 1
  51   29   31 1
  52   29   32 1
  53   30   49 1
  54   30   50 1

#	End of record

