#	Name: ASD05380292
#	Creating user name:	WinNT
#	Creation time:	15. 06. 2019 20:59

#	Modifying user name:	WinNT
#	Modification time:	15. 06. 2019 20:59

#	Program:	/corina/corina34_cracker 3.40 0067  02.08.2006

@<TRIPOS>MOLECULE
ASD05380292
  49   53    0    0    0
SMALL
NO_CHARGES


@<TRIPOS>ATOM
   1 C1            -0.8161     1.9999     0.8653 C.ar    
   2 C2            -0.4727     0.6304     0.8041 C.ar    
   3 N3            -1.4213    -0.2705     0.4459 N.2     
   4 N4            -3.0485     1.3907     0.1813 N.am    
   5 C5            -2.1946     2.3816     0.5291 C.2     
   6 C6             0.1425     2.9445     1.2306 C.ar    
   7 C7             1.4239     2.5304     1.5305 C.ar    
   8 C8             1.7632     1.1860     1.4706 C.ar    
   9 C9             0.8307     0.2376     1.1124 C.ar    
  10 O10           -2.5524     3.5450     0.5535 O.2     
  11 C11           -2.6337     0.0956     0.1588 C.2     
  12 C12           -3.6285    -0.9673    -0.2308 C.3     
  13 C13           -3.4888    -1.2742    -1.7232 C.3     
  14 N14           -3.3718    -2.1839     0.5440 N.pl3   
  15 C15           -4.3756     1.7011    -0.1483 C.ar    
  16 C16           -4.7089     2.0353    -1.4557 C.ar    
  17 C17           -6.0195     2.3404    -1.7771 C.ar    
  18 C18           -6.9970     2.3137    -0.7996 C.ar    
  19 C19           -6.6694     1.9822     0.5021 C.ar    
  20 C20           -5.3622     1.6698     0.8302 C.ar    
  21 C21           -4.4175    -2.8382     1.1715 C.ar    
  22 C22           -4.1991    -4.0372     1.8708 C.ar    
  23 C23           -5.2999    -4.6552     2.4879 C.ar    
  24 N24           -6.4979    -4.0884     2.3893 N.ar    
  25 C25           -6.6551    -2.9636     1.7237 C.ar    
  26 N26           -5.6506    -2.3441     1.1313 N.ar    
  27 N27           -3.1150    -4.8098     2.1220 N.2     
  28 C28           -3.4716    -5.8375     2.8364 C.2     
  29 N29           -4.8104    -5.7875     3.0884 N.pl3   
  30 Cl30          -0.2732     4.6282     1.3069 Cl      
  31 F31           -5.0431     1.3461     2.1024 F       
  32 F32           -3.7543     2.0625    -2.4113 F       
  33 C33           -4.5796    -2.2606    -2.1453 C.3     
  34 H34            2.1694     3.2586     1.8140 H       
  35 H35            2.7711     0.8794     1.7083 H       
  36 H36            1.1071    -0.8056     1.0699 H       
  37 H37           -4.6384    -0.6123    -0.0258 H       
  38 H38           -3.5919    -0.3519    -2.2949 H       
  39 H39           -2.5091    -1.7123    -1.9139 H       
  40 H40           -2.4689    -2.5308     0.6173 H       
  41 H41           -6.2793     2.6001    -2.7927 H       
  42 H42           -8.0192     2.5527    -1.0535 H       
  43 H43           -7.4358     1.9628     1.2628 H       
  44 H44           -7.6421    -2.5293     1.6628 H       
  45 H45           -2.8052    -6.6152     3.1790 H       
  46 H46           -5.3228    -6.4339     3.5988 H       
  47 H47           -4.4801    -2.4792    -3.2085 H       
  48 H48           -4.4765    -3.1828    -1.5735 H       
  49 H49           -5.5592    -1.8224    -1.9545 H       
@<TRIPOS>BOND
   1    1    2 ar
   2    1    6 ar
   3    1    5 1
   4    2    3 1
   5    2    9 ar
   6    3   11 2
   7    4    5 am
   8    4   11 1
   9    4   15 1
  10    5   10 2
  11    6    7 ar
  12    6   30 1
  13    7    8 ar
  14    7   34 1
  15    8    9 ar
  16    8   35 1
  17    9   36 1
  18   11   12 1
  19   12   13 1
  20   12   14 1
  21   12   37 1
  22   13   33 1
  23   13   38 1
  24   13   39 1
  25   14   21 1
  26   14   40 1
  27   15   16 ar
  28   15   20 ar
  29   16   17 ar
  30   16   32 1
  31   17   18 ar
  32   17   41 1
  33   18   19 ar
  34   18   42 1
  35   19   20 ar
  36   19   43 1
  37   20   31 1
  38   21   22 ar
  39   21   26 ar
  40   22   23 ar
  41   22   27 1
  42   23   24 ar
  43   23   29 1
  44   24   25 ar
  45   25   26 ar
  46   25   44 1
  47   27   28 2
  48   28   29 1
  49   28   45 1
  50   29   46 1
  51   33   47 1
  52   33   48 1
  53   33   49 1

#	End of record

