#	Name: ASD03082225
#	Creating user name:	WinNT
#	Creation time:	15. 06. 2019 20:27

#	Modifying user name:	WinNT
#	Modification time:	15. 06. 2019 20:27

#	Program:	/corina/corina34_cracker 3.40 0067  02.08.2006

@<TRIPOS>MOLECULE
ASD03082225
  46   48    0    0    0
SMALL
NO_CHARGES


@<TRIPOS>ATOM
   1 N1             0.0085     1.3975     0.2448 N.am    
   2 N2             0.0099    -0.0021     0.1289 N.2     
   3 C3             1.2331    -0.3606    -0.1820 C.2     
   4 N4             2.0035     0.7276    -0.2693 N.2     
   5 C5             1.2863     1.8026    -0.0155 C.2     
   6 N6             1.6616    -1.6709    -0.3889 N.pl3   
   7 C7             0.7881    -2.7378    -0.1536 C.ar    
   8 C8             0.9686    -3.9441    -0.8183 C.ar    
   9 C9             0.1050    -4.9960    -0.5845 C.ar    
  10 C10           -0.9407    -4.8487     0.3115 C.ar    
  11 C11           -1.1228    -3.6472     0.9748 C.ar    
  12 C12           -0.2574    -2.5944     0.7490 C.ar    
  13 C13            0.3003    -6.3049    -1.3054 C.3     
  14 F14            1.4115    -6.2109    -2.1500 F       
  15 F15            0.5096    -7.3250    -0.3711 F       
  16 F16           -0.8391    -6.5940    -2.0640 F       
  17 N17            3.5073     4.7344     0.4241 N.ar    
  18 C18            3.0678     3.4928     0.4218 C.ar    
  19 C19            1.7762     3.1969    -0.0138 C.ar    
  20 C20            0.9502     4.2415    -0.4501 C.ar    
  21 C21            1.4531     5.5273    -0.4302 C.ar    
  22 C22            2.7516     5.7425     0.0182 C.ar    
  23 C23           -1.0439     2.1835     0.5467 C.2     
  24 N24           -2.2735     1.6454     0.6693 N.am    
  25 F25           -1.7847    -5.8790     0.5383 F       
  26 C26           -3.4175     2.4998     0.9974 C.3     
  27 O27           -0.8841     3.3772     0.7084 O.2     
  28 O28            3.2507     7.0031     0.0404 O.3     
  29 C29            4.5903     7.1622     0.5116 C.3     
  30 C30            4.9753     8.6422     0.4639 C.3     
  31 H31            2.5655    -1.8428    -0.6959 H       
  32 H32            1.7835    -4.0591    -1.5177 H       
  33 H33           -1.9391    -3.5345     1.6729 H       
  34 H34           -0.3969    -1.6589     1.2703 H       
  35 H35            3.7138     2.6961     0.7601 H       
  36 H36           -0.0547     4.0456    -0.7938 H       
  37 H37            0.8446     6.3567    -0.7593 H       
  38 H38           -2.4010     0.6926     0.5402 H       
  39 H39           -4.3205     1.8919     1.0538 H       
  40 H40           -3.2452     2.9845     1.9583 H       
  41 H41           -3.5379     3.2585     0.2241 H       
  42 H42            4.6598     6.8016     1.5378 H       
  43 H43            5.2685     6.5898    -0.1213 H       
  44 H44            4.9059     9.0028    -0.5624 H       
  45 H45            4.2972     9.2146     1.0968 H       
  46 H46            5.9972     8.7636     0.8233 H       
@<TRIPOS>BOND
   1    1    2 1
   2    1    5 1
   3    1   23 am
   4    2    3 2
   5    3    4 1
   6    3    6 1
   7    4    5 2
   8    5   19 1
   9    6    7 1
  10    6   31 1
  11    7    8 ar
  12    7   12 ar
  13    8    9 ar
  14    8   32 1
  15    9   10 ar
  16    9   13 1
  17   10   11 ar
  18   10   25 1
  19   11   12 ar
  20   11   33 1
  21   12   34 1
  22   13   14 1
  23   13   15 1
  24   13   16 1
  25   17   18 ar
  26   17   22 ar
  27   18   19 ar
  28   18   35 1
  29   19   20 ar
  30   20   21 ar
  31   20   36 1
  32   21   22 ar
  33   21   37 1
  34   22   28 1
  35   23   24 am
  36   23   27 2
  37   24   26 1
  38   24   38 1
  39   26   39 1
  40   26   40 1
  41   26   41 1
  42   28   29 1
  43   29   30 1
  44   29   42 1
  45   29   43 1
  46   30   44 1
  47   30   45 1
  48   30   46 1

#	End of record

