#	Name: ASD01000034
#	Creating user name:	WinNT
#	Creation time:	15. 06. 2019 18:54

#	Modifying user name:	WinNT
#	Modification time:	15. 06. 2019 18:54

#	Program:	/corina/corina34_cracker 3.40 0067  02.08.2006

@<TRIPOS>MOLECULE
ASD01000034
  52   54    0    0    0
SMALL
NO_CHARGES


@<TRIPOS>ATOM
   1 C1             0.8150     0.7603    -1.4962 C.ar    
   2 C2             0.5396    -0.4698    -0.9174 C.ar    
   3 C3            -0.7652    -0.9166    -0.8350 C.ar    
   4 C4            -1.7959    -0.1387    -1.3288 C.ar    
   5 C5            -1.5239     1.0878    -1.9066 C.ar    
   6 C6            -0.2217     1.5417    -1.9858 C.ar    
   7 C7            -1.0651    -2.2532    -0.2068 C.3     
   8 N8            -2.2874    -2.1105     0.6021 N.am    
   9 C9            -1.0887    -3.2926    -1.3090 C.2     
  10 C10           -2.2212    -4.0110    -1.4717 C.2     
  11 N11           -3.3074    -3.8058    -0.6689 N.am    
  12 C12           -3.3406    -2.9020     0.3184 C.2     
  13 C13            0.0365    -3.5033    -2.1396 C.2     
  14 O14            1.1107    -2.6926    -2.0390 O.3     
  15 S15           -4.7677    -2.7470     1.2514 S.2     
  16 O16            0.0361    -4.4157    -2.9448 O.2     
  17 O17            2.0976     1.2019    -1.5784 O.3     
  18 C18            2.2116    -2.9635    -2.9088 C.3     
  19 C19            3.3269    -1.9482    -2.6513 C.3     
  20 C20           -4.4502    -4.5842    -0.8912 C.ar    
  21 C21           -5.4218    -4.1541    -1.7853 C.ar    
  22 C22           -6.5475    -4.9243    -2.0027 C.ar    
  23 C23           -6.7075    -6.1225    -1.3312 C.ar    
  24 C24           -5.7419    -6.5533    -0.4400 C.ar    
  25 C25           -4.6113    -5.7905    -0.2224 C.ar    
  26 C26           -1.7737    -7.4302    -3.1361 C.3     
  27 C27           -1.7062    -6.3704    -2.0347 C.3     
  28 C28           -2.2877    -5.0549    -2.5565 C.3     
  29 H29            1.3445    -1.0781    -0.5318 H       
  30 H30           -2.8152    -0.4897    -1.2634 H       
  31 H31           -2.3307     1.6934    -2.2923 H       
  32 H32           -0.0098     2.4998    -2.4369 H       
  33 H33           -0.2432    -2.4966     0.4665 H       
  34 H34           -2.3332    -1.4624     1.3224 H       
  35 H35            2.5524     0.9401    -2.3906 H       
  36 H36            2.5854    -3.9697    -2.7193 H       
  37 H37            1.8831    -2.8872    -3.9454 H       
  38 H38            2.9531    -0.9420    -2.8409 H       
  39 H39            3.6554    -2.0245    -1.6148 H       
  40 H40            4.1667    -2.1549    -3.3148 H       
  41 H41           -5.2976    -3.2183    -2.3097 H       
  42 H42           -7.3037    -4.5902    -2.6977 H       
  43 H43           -7.5886    -6.7230    -1.5030 H       
  44 H44           -5.8700    -7.4895     0.0832 H       
  45 H45           -3.8553    -6.1299     0.4701 H       
  46 H46           -1.1976    -7.0951    -3.9986 H       
  47 H47           -1.3594    -8.3674    -2.7644 H       
  48 H48           -2.8121    -7.5832    -3.4300 H       
  49 H49           -2.2823    -6.7055    -1.1722 H       
  50 H50           -0.6678    -6.2174    -1.7408 H       
  51 H51           -3.3261    -5.2079    -2.8504 H       
  52 H52           -1.7116    -4.7198    -3.4190 H       
@<TRIPOS>BOND
   1    1    2 ar
   2    1   17 1
   3    1    6 ar
   4    2    3 ar
   5    2   29 1
   6    3    4 ar
   7    3    7 1
   8    4    5 ar
   9    4   30 1
  10    5    6 ar
  11    5   31 1
  12    6   32 1
  13    7    8 1
  14    7    9 1
  15    7   33 1
  16    8   12 am
  17    8   34 1
  18    9   10 2
  19    9   13 1
  20   10   28 1
  21   10   11 1
  22   11   20 1
  23   11   12 am
  24   12   15 2
  25   13   14 1
  26   13   16 2
  27   14   18 1
  28   17   35 1
  29   18   19 1
  30   18   36 1
  31   18   37 1
  32   19   38 1
  33   19   39 1
  34   19   40 1
  35   20   21 ar
  36   20   25 ar
  37   21   22 ar
  38   21   41 1
  39   22   23 ar
  40   22   42 1
  41   23   24 ar
  42   23   43 1
  43   24   25 ar
  44   24   44 1
  45   25   45 1
  46   26   27 1
  47   26   46 1
  48   26   47 1
  49   26   48 1
  50   27   28 1
  51   27   49 1
  52   27   50 1
  53   28   51 1
  54   28   52 1

#	End of record

