#	Name: ASD04882340
#	Creating user name:	WinNT
#	Creation time:	15. 06. 2019 20:54

#	Modifying user name:	WinNT
#	Modification time:	15. 06. 2019 20:54

#	Program:	/corina/corina34_cracker 3.40 0067  02.08.2006

@<TRIPOS>MOLECULE
ASD04882340
  71   76    0    0    0
SMALL
NO_CHARGES


@<TRIPOS>ATOM
   1 N1             0.1874     1.0478     0.3440 N.am    
   2 C2             0.1225    -0.3447     0.2053 C.ar    
   3 C3            -1.1187    -0.9853     0.1530 C.ar    
   4 C4            -1.1846    -2.3671     0.0155 C.ar    
   5 C5            -0.0279    -3.1097    -0.0692 C.ar    
   6 C6             1.2166    -2.4756    -0.0171 C.ar    
   7 C7             1.2856    -1.0858     0.1145 C.ar    
   8 N8            -2.2908    -0.2384     0.2393 N.3     
   9 C9            -3.1158    -0.4123    -0.9644 C.3     
  10 C10           -3.0493    -0.5865     1.4489 C.3     
  11 C11           -4.2861     0.3095     1.5477 C.3     
  12 N12           -5.1111     0.1356     0.3440 N.3     
  13 C13           -4.3527     0.4837    -0.8656 C.3     
  14 C14            2.4555    -3.2714    -0.1074 C.2     
  15 O15            3.3766    -2.8859    -0.8014 O.2     
  16 C16            1.2505     1.7239    -0.1349 C.2     
  17 C17            1.2754     3.1887    -0.0749 C.2     
  18 O18            2.1898     1.1184    -0.6171 O.2     
  19 N19            2.5665    -4.4258     0.5793 N.am    
  20 C20            2.2846     3.9931    -0.5215 C.2     
  21 C21            1.8891     5.3156    -0.2670 C.2     
  22 C22            0.6714     5.2614     0.3163 C.2     
  23 O23            0.3028     3.9783     0.4258 O.3     
  24 C24           -6.2868     0.8848     0.4305 C.ar    
  25 C25           -6.2238     2.2654     0.5684 C.ar    
  26 C26           -7.5219     0.2512     0.3731 C.ar    
  27 C27           -8.6822     0.9948     0.4589 C.ar    
  28 C28           -8.6159     2.3689     0.6015 C.ar    
  29 C29           -7.3884     3.0032     0.6537 C.ar    
  30 C30           -7.5952    -1.2459     0.2168 C.3     
  31 C31            3.8247    -5.1877     0.5808 C.3     
  32 C32            4.3819    -5.2371     2.0085 C.3     
  33 N33            3.2998    -5.5636     2.9358 N.pl3   
  34 C34            1.9812    -5.4446     2.6718 C.2     
  35 C35            1.4316    -4.9588     1.3563 C.3     
  36 C36            3.3900    -6.0351     4.2129 C.2     
  37 N37            2.1554    -6.1711     4.6562 N.2     
  38 N38            1.3259    -5.8176     3.7352 N.2     
  39 C39            4.6288    -6.3347     4.9544 C.2     
  40 O40            5.7103    -6.1638     4.4256 O.2     
  41 N41            4.5623    -6.7978     6.2184 N.am    
  42 H42           -0.5346     1.5259     0.7811 H       
  43 H43           -2.1450    -2.8593    -0.0246 H       
  44 H44           -0.0824    -4.1831    -0.1757 H       
  45 H45            2.2458    -0.5930     0.1550 H       
  46 H46           -2.5363    -0.1364    -1.8454 H       
  47 H47           -3.4267    -1.4539    -1.0448 H       
  48 H48           -3.3595    -1.6301     1.3959 H       
  49 H49           -2.4213    -0.4376     2.3273 H       
  50 H50           -4.8656     0.0336     2.4287 H       
  51 H51           -3.9752     1.3511     1.6281 H       
  52 H52           -4.0425     1.5273    -0.8126 H       
  53 H53           -4.9806     0.3348    -1.7440 H       
  54 H54            3.2083     3.6735    -0.9809 H       
  55 H55            2.4522     6.2087    -0.4946 H       
  56 H56            0.0895     6.1125     0.6377 H       
  57 H57           -5.2654     2.7615     0.6093 H       
  58 H58           -9.6427     0.5029     0.4144 H       
  59 H59           -9.5250     2.9482     0.6677 H       
  60 H60           -7.3401     4.0763     0.7651 H       
  61 H61           -7.6054    -1.7139     1.2011 H       
  62 H62           -8.5055    -1.5109    -0.3211 H       
  63 H63           -6.7276    -1.5957    -0.3428 H       
  64 H64            3.6369    -6.2017     0.2277 H       
  65 H65            4.5463    -4.7005    -0.0751 H       
  66 H66            5.1574    -6.0006     2.0705 H       
  67 H67            4.8039    -4.2663     2.2685 H       
  68 H68            0.6935    -4.1753     1.5282 H       
  69 H69            0.9760    -5.7878     0.8146 H       
  70 H70            3.6995    -6.9341     6.6402 H       
  71 H71            5.3772    -6.9949     6.7062 H       
@<TRIPOS>BOND
   1    1    2 1
   2    1   16 am
   3    1   42 1
   4    2    3 ar
   5    2    7 ar
   6    3    4 ar
   7    3    8 1
   8    4    5 ar
   9    4   43 1
  10    5    6 ar
  11    5   44 1
  12    6    7 ar
  13    6   14 1
  14    7   45 1
  15    8    9 1
  16    8   10 1
  17    9   13 1
  18    9   46 1
  19    9   47 1
  20   10   11 1
  21   10   48 1
  22   10   49 1
  23   11   12 1
  24   11   50 1
  25   11   51 1
  26   12   13 1
  27   12   24 1
  28   13   52 1
  29   13   53 1
  30   14   15 2
  31   14   19 am
  32   16   18 2
  33   16   17 1
  34   17   20 2
  35   17   23 1
  36   19   31 1
  37   19   35 1
  38   20   21 1
  39   20   54 1
  40   21   22 2
  41   21   55 1
  42   22   23 1
  43   22   56 1
  44   24   25 ar
  45   24   26 ar
  46   25   29 ar
  47   25   57 1
  48   26   27 ar
  49   26   30 1
  50   27   28 ar
  51   27   58 1
  52   28   29 ar
  53   28   59 1
  54   29   60 1
  55   30   61 1
  56   30   62 1
  57   30   63 1
  58   31   32 1
  59   31   64 1
  60   31   65 1
  61   32   33 1
  62   32   66 1
  63   32   67 1
  64   33   34 1
  65   33   36 1
  66   34   35 1
  67   34   38 2
  68   35   68 1
  69   35   69 1
  70   36   37 2
  71   36   39 1
  72   37   38 1
  73   39   40 2
  74   39   41 am
  75   41   70 1
  76   41   71 1

#	End of record

