#	Name: ASD00843365
#	Creating user name:	WinNT
#	Creation time:	15. 06. 2019 18:46

#	Modifying user name:	WinNT
#	Modification time:	15. 06. 2019 18:46

#	Program:	/corina/corina34_cracker 3.40 0067  02.08.2006

@<TRIPOS>MOLECULE
ASD00843365
  85   90    0    0    0
SMALL
NO_CHARGES


@<TRIPOS>ATOM
   1 N1             0.9929     1.1258     0.0116 N.ar    
   2 C2             1.1764    -0.1307    -0.3578 C.ar    
   3 C3             1.0452    -1.1648     0.5605 C.ar    
   4 C4             0.7193    -0.8639     1.8712 C.ar    
   5 C5             0.5350     0.4675     2.2188 C.ar    
   6 C6             0.6814     1.4438     1.2539 C.ar    
   7 C7             1.2547    -2.5952     0.1348 C.3     
   8 C8             0.9145    -3.5410     1.2669 C.2     
   9 C9             0.4123    -2.9141    -1.1019 C.3     
  10 C10           -1.0315    -2.5826    -0.8254 C.2     
  11 N11           -1.9790    -2.8881    -1.7339 N.am    
  12 O12           -1.3409    -2.0408     0.2146 O.2     
  13 C13           -3.3730    -2.4704    -1.5311 C.3     
  14 C14           -4.2780    -3.7011    -1.6451 C.3     
  15 C15           -4.0189    -4.3978    -2.9829 C.3     
  16 C16           -2.5620    -4.8623    -3.0443 C.3     
  17 C17           -1.6364    -3.6399    -2.9489 C.3     
  18 N18           -4.9088    -5.5596    -3.1101 N.3     
  19 C19           -4.7725    -6.1851    -4.4329 C.3     
  20 C20           -5.6542    -7.4345    -4.4967 C.3     
  21 N21           -7.0509    -7.0592    -4.2362 N.3     
  22 C22           -7.1871    -6.4337    -2.9134 C.3     
  23 C23           -6.3055    -5.1843    -2.8495 C.3     
  24 H24           -7.4035    -6.4523    -4.9611 H       
  25 O25           -0.1668    -3.6636     1.8024 O.2     
  26 N26            2.0345    -4.2195     1.5667 N.am    
  27 C27            2.7187    -2.8588    -0.1351 C.ar    
  28 C28            3.1103    -3.8460     0.7661 C.ar    
  29 C29            3.6095    -2.3277    -1.0331 C.ar    
  30 C30            4.9339    -2.7797    -1.0500 C.ar    
  31 C31            5.3347    -3.7718    -0.1470 C.ar    
  32 C32            4.4297    -4.2985     0.7495 C.ar    
  33 F33            6.6109    -4.2149    -0.1553 F       
  34 C34            1.7345    -6.9188     2.0117 C.ar    
  35 C35            0.4641    -7.1434     1.5019 C.ar    
  36 C36            2.6948    -7.9088     1.9313 C.ar    
  37 C37            2.3907    -9.1223     1.3429 C.ar    
  38 C38            1.1250    -9.3487     0.8339 C.ar    
  39 C39            0.1613    -8.3624     0.9123 C.ar    
  40 H40            0.8899   -10.2975     0.3748 H       
  41 O41           -0.4824    -6.1713     1.5802 O.3     
  42 C42           -1.7683    -6.4725     1.0345 C.3     
  43 C43            5.8715    -2.2321    -1.9837 C.1     
  44 N44            6.6152    -1.7978    -2.7243 N.1     
  45 S45            2.1252    -5.3696     2.7546 S.o2    
  46 O46            3.4912    -5.4422     3.1393 O.2     
  47 O47            1.0744    -5.0864     3.6684 O.2     
  48 O48            1.4952    -0.4126    -1.6461 O.3     
  49 C49            1.5763     0.6907    -2.5507 C.3     
  50 C50            2.0387     0.1932    -3.9217 C.3     
  51 F51            3.2572    -0.4808    -3.7865 F       
  52 F52            1.0798    -0.6781    -4.4493 F       
  53 H53            0.6103    -1.6470     2.6070 H       
  54 H54            0.2796     0.7365     3.2331 H       
  55 H55            0.5396     2.4811     1.5191 H       
  56 H56            0.7662    -2.3212    -1.9453 H       
  57 H57            0.5026    -3.9740    -1.3396 H       
  58 H58           -3.4814    -2.0275    -0.5411 H       
  59 H59           -3.6503    -1.7411    -2.2923 H       
  60 H60           -4.0607    -4.3894    -0.8284 H       
  61 H61           -5.3218    -3.3913    -1.5924 H       
  62 H62           -4.2127    -3.7012    -3.7986 H       
  63 H63           -2.3608    -5.5397    -2.2144 H       
  64 H64           -2.3843    -5.3789    -3.9875 H       
  65 H65           -1.7736    -3.0083    -3.8267 H       
  66 H66           -0.5993    -3.9703    -2.8924 H       
  67 H67           -5.0853    -5.4796    -5.2027 H       
  68 H68           -3.7321    -6.4654    -4.5972 H       
  69 H69           -5.5770    -7.8838    -5.4868 H       
  70 H70           -5.3240    -8.1514    -3.7450 H       
  71 H71           -8.2276    -6.1534    -2.7491 H       
  72 H72           -6.8744    -7.1392    -2.1436 H       
  73 H73           -6.3827    -4.7350    -1.8594 H       
  74 H74           -6.6357    -4.4674    -3.6013 H       
  75 H75            3.2895    -1.5630    -1.7254 H       
  76 H76            4.7442    -5.0637     1.4437 H       
  77 H77            3.6841    -7.7345     2.3280 H       
  78 H78            3.1430    -9.8947     1.2804 H       
  79 H79           -0.8273    -8.5399     0.5153 H       
  80 H80           -1.6685    -6.6993    -0.0270 H       
  81 H81           -2.1899    -7.3342     1.5520 H       
  82 H82           -2.4273    -5.6137     1.1621 H       
  83 H83            0.5952     1.1561    -2.6450 H       
  84 H84            2.2899     1.4212    -2.1696 H       
  85 H85            2.1659     1.0429    -4.5925 H       
@<TRIPOS>BOND
   1    1    2 ar
   2    1    6 ar
   3    2    3 ar
   4    2   48 1
   5    3    4 ar
   6    3    7 1
   7    4    5 ar
   8    4   53 1
   9    5    6 ar
  10    5   54 1
  11    6   55 1
  12    7    8 1
  13    7    9 1
  14    7   27 1
  15    8   25 2
  16    8   26 am
  17    9   10 1
  18    9   56 1
  19    9   57 1
  20   10   11 am
  21   10   12 2
  22   11   13 1
  23   11   17 1
  24   13   14 1
  25   13   58 1
  26   13   59 1
  27   14   15 1
  28   14   60 1
  29   14   61 1
  30   15   16 1
  31   15   18 1
  32   15   62 1
  33   16   17 1
  34   16   63 1
  35   16   64 1
  36   17   65 1
  37   17   66 1
  38   18   19 1
  39   18   23 1
  40   19   20 1
  41   19   67 1
  42   19   68 1
  43   20   21 1
  44   20   69 1
  45   20   70 1
  46   21   22 1
  47   21   24 1
  48   22   23 1
  49   22   71 1
  50   22   72 1
  51   23   73 1
  52   23   74 1
  53   26   45 am
  54   26   28 1
  55   27   28 ar
  56   27   29 ar
  57   28   32 ar
  58   29   30 ar
  59   29   75 1
  60   30   31 ar
  61   30   43 1
  62   31   32 ar
  63   31   33 1
  64   32   76 1
  65   34   35 ar
  66   34   36 ar
  67   34   45 1
  68   35   41 1
  69   35   39 ar
  70   36   37 ar
  71   36   77 1
  72   37   38 ar
  73   37   78 1
  74   38   39 ar
  75   38   40 1
  76   39   79 1
  77   41   42 1
  78   42   80 1
  79   42   81 1
  80   42   82 1
  81   43   44 3
  82   45   46 2
  83   45   47 2
  84   48   49 1
  85   49   50 1
  86   49   83 1
  87   49   84 1
  88   50   51 1
  89   50   52 1
  90   50   85 1

#	End of record

