#	Name: ASD02039113
#	Creating user name:	WinNT
#	Creation time:	15. 06. 2019 20:17

#	Modifying user name:	WinNT
#	Modification time:	15. 06. 2019 20:17

#	Program:	/corina/corina34_cracker 3.40 0067  02.08.2006

@<TRIPOS>MOLECULE
ASD02039113
  43   46    0    0    0
SMALL
NO_CHARGES


@<TRIPOS>ATOM
   1 N1            -0.0154     1.2823     0.0091 N.2     
   2 N2             0.0021    -0.0041     0.0020 N.2     
   3 C3             1.2155     1.7327    -0.0002 C.2     
   4 O4             2.0320     0.6629    -0.0138 O.3     
   5 C5             1.2335    -0.4225    -0.0120 C.2     
   6 N6             1.6029     3.0599     0.0032 N.pl3   
   7 C7             1.2700     5.4636     0.0197 C.ar    
   8 C8             1.6853    -1.8601    -0.0233 C.3     
   9 C9             1.8230    -2.3323    -1.4478 C.ar    
  10 C10            1.5695     6.0866    -1.1771 C.ar    
  11 C11            1.5883     6.0763     1.2176 C.ar    
  12 C12            2.2064     7.3124     1.2196 C.ar    
  13 C13            2.5069     7.9375     0.0225 C.ar    
  14 C14            2.1882     7.3240    -1.1769 C.ar    
  15 Cl15           3.2828     9.4905     0.0245 Cl      
  16 C16            3.0297    -2.1890    -2.1086 C.ar    
  17 C17            0.7446    -2.9128    -2.0893 C.ar    
  18 C18            0.8673    -3.3473    -3.3950 C.ar    
  19 C19            2.0755    -3.2000    -4.0626 C.ar    
  20 C20            3.1583    -2.6210    -3.4134 C.ar    
  21 N21            2.2064    -3.6370    -5.3842 N.am    
  22 C22            3.4248    -3.8452    -5.9162 C.2     
  23 C23            4.6692    -3.6318    -5.0972 C.3     
  24 C24            4.4691    -2.4609    -4.1387 C.3     
  25 O25            3.5212    -4.2094    -7.0690 O.2     
  26 Cl26           2.5651     8.1067    -2.6799 Cl      
  27 C27            0.5904     4.1185     0.0191 C.3     
  28 H28            2.5452     3.2900    -0.0049 H       
  29 H29            2.6479    -1.9425     0.4815 H       
  30 H30            0.9499    -2.4762     0.4942 H       
  31 H31            1.3208     5.6073    -2.1124 H       
  32 H32            1.3535     5.5888     2.1523 H       
  33 H33            2.4544     7.7906     2.1557 H       
  34 H34            3.8716    -1.7387    -1.6037 H       
  35 H35           -0.1948    -3.0271    -1.5689 H       
  36 H36            0.0247    -3.8012    -3.8954 H       
  37 H37            1.4136    -3.7916    -5.9212 H       
  38 H38            4.8837    -4.5332    -4.5231 H       
  39 H39            5.5073    -3.4189    -5.7608 H       
  40 H40            4.4588    -1.5279    -4.7022 H       
  41 H41            5.2849    -2.4395    -3.4161 H       
  42 H42           -0.0409     4.0308    -0.8651 H       
  43 H43           -0.0232     4.0210     0.9147 H       
@<TRIPOS>BOND
   1    1    2 1
   2    1    3 2
   3    2    5 2
   4    3    4 1
   5    3    6 1
   6    4    5 1
   7    5    8 1
   8    6   27 1
   9    6   28 1
  10    7   10 ar
  11    7   11 ar
  12    7   27 1
  13    8    9 1
  14    8   29 1
  15    8   30 1
  16    9   16 ar
  17    9   17 ar
  18   10   14 ar
  19   10   31 1
  20   11   12 ar
  21   11   32 1
  22   12   13 ar
  23   12   33 1
  24   13   14 ar
  25   13   15 1
  26   14   26 1
  27   16   20 ar
  28   16   34 1
  29   17   18 ar
  30   17   35 1
  31   18   19 ar
  32   18   36 1
  33   19   20 ar
  34   19   21 1
  35   20   24 1
  36   21   22 am
  37   21   37 1
  38   22   23 1
  39   22   25 2
  40   23   24 1
  41   23   38 1
  42   23   39 1
  43   24   40 1
  44   24   41 1
  45   27   42 1
  46   27   43 1

#	End of record

