#	Name: ASD01941048
#	Creating user name:	WinNT
#	Creation time:	15. 06. 2019 20:13

#	Modifying user name:	WinNT
#	Modification time:	15. 06. 2019 20:13

#	Program:	/corina/corina34_cracker 3.40 0067  02.08.2006

@<TRIPOS>MOLECULE
ASD01941048
  43   45    0    0    0
SMALL
NO_CHARGES


@<TRIPOS>ATOM
   1 N1            -0.0130     1.4148    -0.4140 N.am    
   2 C2             0.0277     0.0616    -0.4222 C.2     
   3 N3            -1.0429    -0.6734    -0.2931 N.2     
   4 C4            -2.2537    -0.1183    -0.1437 C.2     
   5 C5            -2.3651     1.2790    -0.1268 C.2     
   6 C6            -1.1914     2.0615    -0.2631 C.2     
   7 N7            -3.3746    -0.8887    -0.0091 N.am    
   8 C8            -4.5911    -0.3384     0.1401 C.2     
   9 C9            -4.7770     1.0480     0.1657 C.2     
  10 C10           -3.6832     1.8893     0.0358 C.2     
  11 C11           -3.2466    -2.3479    -0.0283 C.3     
  12 O12           -5.5620    -1.0690     0.2562 O.2     
  13 O13           -1.2433     3.2788    -0.2536 O.2     
  14 N14           -3.8345     3.2634     0.0576 N.pl3   
  15 C15           -3.2880     4.0109     1.1066 C.ar    
  16 C16           -2.7070     3.3671     2.1903 C.ar    
  17 C17           -2.1675     4.1075     3.2248 C.ar    
  18 C18           -2.2055     5.4895     3.1821 C.ar    
  19 C19           -2.7842     6.1359     2.1038 C.ar    
  20 C20           -3.3206     5.4011     1.0629 C.ar    
  21 F21           -3.8856     6.0318     0.0102 F       
  22 Br22          -1.4658     6.4979     4.6005 Br      
  23 C23            1.2259     2.1824    -0.5631 C.3     
  24 C24            1.4827     2.4530    -2.0469 C.3     
  25 C25            2.8373     3.1448    -2.2121 C.3     
  26 O26            3.1301     3.2927    -3.6030 O.3     
  27 O27            0.4510     3.2965    -2.5628 O.3     
  28 F28           -6.0163     1.5641     0.3171 F       
  29 H29            0.9828    -0.4285    -0.5405 H       
  30 H30           -3.0905    -2.7124     0.9871 H       
  31 H31           -4.1570    -2.7872    -0.4360 H       
  32 H32           -2.3970    -2.6300    -0.6501 H       
  33 H33           -4.3196     3.7093    -0.6543 H       
  34 H34           -2.6768     2.2880     2.2252 H       
  35 H35           -1.7158     3.6064     4.0681 H       
  36 H36           -2.8128     7.2151     2.0734 H       
  37 H37            1.1327     3.1295    -0.0318 H       
  38 H38            2.0579     1.6134    -0.1482 H       
  39 H39            1.4875     1.5096    -2.5928 H       
  40 H40            2.8033     4.1274    -1.7415 H       
  41 H41            3.6130     2.5422    -1.7397 H       
  42 H42            3.9763     3.7248    -3.7830 H       
  43 H43            0.3883     4.1553    -2.1227 H       
@<TRIPOS>BOND
   1    1    2 1
   2    1   23 1
   3    1    6 am
   4    2    3 2
   5    2   29 1
   6    3    4 1
   7    4    5 2
   8    4    7 1
   9    5    6 1
  10    5   10 1
  11    6   13 2
  12    7    8 am
  13    7   11 1
  14    8    9 1
  15    8   12 2
  16    9   10 2
  17    9   28 1
  18   10   14 1
  19   11   30 1
  20   11   31 1
  21   11   32 1
  22   14   15 1
  23   14   33 1
  24   15   16 ar
  25   15   20 ar
  26   16   17 ar
  27   16   34 1
  28   17   18 ar
  29   17   35 1
  30   18   19 ar
  31   18   22 1
  32   19   20 ar
  33   19   36 1
  34   20   21 1
  35   23   24 1
  36   23   37 1
  37   23   38 1
  38   24   25 1
  39   24   27 1
  40   24   39 1
  41   25   26 1
  42   25   40 1
  43   25   41 1
  44   26   42 1
  45   27   43 1

#	End of record

