#	Name: ASD03430196
#	Creating user name:	WinNT
#	Creation time:	15. 06. 2019 20:40

#	Modifying user name:	WinNT
#	Modification time:	15. 06. 2019 20:40

#	Program:	/corina/corina34_cracker 3.40 0067  02.08.2006

@<TRIPOS>MOLECULE
ASD03430196
  61   67    0    0    0
SMALL
NO_CHARGES


@<TRIPOS>ATOM
   1 C1            -0.1225     1.3801     0.0866 C.ar    
   2 C2            -1.3085     2.0815     0.0833 C.ar    
   3 C3            -2.5107     1.4069     0.0908 C.ar    
   4 C4            -2.5367     0.0143     0.1123 C.ar    
   5 C5            -1.3365    -0.6854     0.1074 C.ar    
   6 C6            -0.1218    -0.0092     0.0914 C.ar    
   7 O7            -3.8171    -0.4531     0.1485 O.3     
   8 C8            -3.9441     1.8637     0.0665 C.3     
   9 C9            -4.7148     0.5847    -0.2894 C.3     
  10 C10           -4.8219     3.7286     1.1021 C.ar    
  11 C11           -4.3859     2.4354     1.3808 C.ar    
  12 C12           -4.1776     2.9533    -0.9402 C.2     
  13 N13           -4.6876     4.0002    -0.2616 N.am    
  14 O14           -3.9516     2.9015    -2.1307 O.2     
  15 C15           -4.4256     1.9449     2.6665 C.ar    
  16 C16           -4.9010     2.7375     3.6965 C.ar    
  17 C17           -5.3361     4.0229     3.4314 C.ar    
  18 C18           -5.2986     4.5190     2.1445 C.ar    
  19 C19           -5.0588     5.2744    -0.8820 C.3     
  20 C20            1.3264     1.8266     0.0923 C.3     
  21 C21            2.0598     0.5266     0.4991 C.3     
  22 O22            1.1487    -0.4999     0.0713 O.3     
  23 C23           -3.8732     6.2046    -0.8672 C.ar    
  24 C24           -2.9878     6.2088    -1.9304 C.ar    
  25 C25           -1.9002     7.0575    -1.9229 C.ar    
  26 C26           -1.6944     7.9136    -0.8397 C.ar    
  27 C27           -2.5918     7.9046     0.2294 C.ar    
  28 C28           -3.6782     7.0546     0.2070 C.ar    
  29 C29           -0.5310     8.8253    -0.8247 C.2     
  30 N30           -0.3351     9.6507     0.2226 N.am    
  31 O31            0.2491     8.8307    -1.7571 O.2     
  32 C32            0.8109    10.4524     0.2770 C.ar    
  33 C33            1.3054    10.8795     1.5051 C.ar    
  34 C34            2.4380    11.6710     1.5542 C.ar    
  35 C35            3.0778    12.0378     0.3841 C.ar    
  36 C36            2.5879    11.6148    -0.8374 C.ar    
  37 C37            1.4600    10.8185    -0.8938 C.ar    
  38 F38            0.6797    10.5219     2.6479 F       
  39 H39           -1.2963     3.1614     0.0752 H       
  40 H40           -1.3471    -1.7653     0.1165 H       
  41 H41           -4.8845     0.5215    -1.3643 H       
  42 H42           -5.6575     0.5365     0.2558 H       
  43 H43           -4.0856     0.9405     2.8715 H       
  44 H44           -4.9326     2.3527     4.7052 H       
  45 H45           -5.7072     4.6413     4.2353 H       
  46 H46           -5.6400     5.5240     1.9451 H       
  47 H47           -5.3708     5.0998    -1.9117 H       
  48 H48           -5.8805     5.7241    -0.3247 H       
  49 H49            1.6368     2.1549    -0.8997 H       
  50 H50            1.4890     2.6127     0.8297 H       
  51 H51            3.0120     0.4404    -0.0243 H       
  52 H52            2.2064     0.4875     1.5785 H       
  53 H53           -3.1482     5.5459    -2.7678 H       
  54 H54           -1.2094     7.0593    -2.7531 H       
  55 H55           -2.4380     8.5642     1.0707 H       
  56 H56           -4.3734     7.0469     1.0333 H       
  57 H57           -0.9883     9.6890     0.9387 H       
  58 H58            2.8231    12.0034     2.5069 H       
  59 H59            3.9622    12.6564     0.4249 H       
  60 H60            3.0899    11.9039    -1.7489 H       
  61 H61            1.0784    10.4889    -1.8489 H       
@<TRIPOS>BOND
   1    1    6 ar
   2    1   20 1
   3    1    2 ar
   4    2    3 ar
   5    2   39 1
   6    3    4 ar
   7    3    8 1
   8    4    5 ar
   9    4    7 1
  10    5    6 ar
  11    5   40 1
  12    6   22 1
  13    7    9 1
  14    8    9 1
  15    8   11 1
  16    8   12 1
  17    9   41 1
  18    9   42 1
  19   10   11 ar
  20   10   13 1
  21   10   18 ar
  22   11   15 ar
  23   12   13 am
  24   12   14 2
  25   13   19 1
  26   15   16 ar
  27   15   43 1
  28   16   17 ar
  29   16   44 1
  30   17   18 ar
  31   17   45 1
  32   18   46 1
  33   19   23 1
  34   19   47 1
  35   19   48 1
  36   20   21 1
  37   20   49 1
  38   20   50 1
  39   21   22 1
  40   21   51 1
  41   21   52 1
  42   23   24 ar
  43   23   28 ar
  44   24   25 ar
  45   24   53 1
  46   25   26 ar
  47   25   54 1
  48   26   27 ar
  49   26   29 1
  50   27   28 ar
  51   27   55 1
  52   28   56 1
  53   29   30 am
  54   29   31 2
  55   30   32 1
  56   30   57 1
  57   32   33 ar
  58   32   37 ar
  59   33   34 ar
  60   33   38 1
  61   34   35 ar
  62   34   58 1
  63   35   36 ar
  64   35   59 1
  65   36   37 ar
  66   36   60 1
  67   37   61 1

#	End of record

