#	Name: ASD04881140
#	Creating user name:	WinNT
#	Creation time:	15. 06. 2019 20:53

#	Modifying user name:	WinNT
#	Modification time:	15. 06. 2019 20:53

#	Program:	/corina/corina34_cracker 3.40 0067  02.08.2006

@<TRIPOS>MOLECULE
ASD04881140
  80   84    0    0    0
SMALL
NO_CHARGES


@<TRIPOS>ATOM
   1 C1             0.4801     1.1218    -0.4801 C.2     
   2 C2             1.6970     1.6911    -0.7248 C.2     
   3 C3             2.0760     3.0758    -0.4266 C.2     
   4 O4             1.2704     3.8304     0.0863 O.2     
   5 O5             2.4894     0.7562    -1.2890 O.3     
   6 C6             1.8079    -0.3906    -1.4087 C.2     
   7 C7             0.5610    -0.2085    -0.9206 C.2     
   8 N8             3.3166     3.5131    -0.7204 N.am    
   9 C9             3.6453     4.8625    -0.5372 C.ar    
  10 C10            4.9424     5.2215    -0.1587 C.ar    
  11 C11            5.2700     6.5598     0.0229 C.ar    
  12 C12            4.3185     7.5373    -0.1692 C.ar    
  13 C13            3.0202     7.1855    -0.5475 C.ar    
  14 C14            2.6894     5.8403    -0.7360 C.ar    
  15 C15            2.0013     8.2325    -0.7527 C.2     
  16 O16            0.8717     7.9254    -1.0819 O.2     
  17 N17            2.3224     9.5294    -0.5751 N.am    
  18 N18            5.9072     4.2367     0.0370 N.3     
  19 C19            5.5756     3.3977     1.1971 C.3     
  20 C20            6.6149     2.2820     1.3301 C.3     
  21 N21            7.9510     2.8758     1.4779 N.3     
  22 C22            8.2826     3.7148     0.3179 C.3     
  23 C23            7.2434     4.8305     0.1849 C.3     
  24 C24            8.9188     1.8880     1.6743 C.ar    
  25 C25            8.9156     1.1321     2.8400 C.ar    
  26 C26            9.8736     0.1561     3.0306 C.ar    
  27 C27           10.8357    -0.0692     2.0630 C.ar    
  28 C28           10.8418     0.6812     0.9017 C.ar    
  29 C29            9.8830     1.6553     0.7020 C.ar    
  30 C30            7.8683     1.3775     3.8953 C.3     
  31 C31            1.3106    10.5690    -0.7788 C.3     
  32 C32            1.6794    11.8072     0.0409 C.3     
  33 C33            1.6175    11.4688     1.5317 C.3     
  34 N34            1.9707    12.6543     2.3166 N.am    
  35 C35            2.3433    -1.6728    -1.9921 C.3     
  36 C36            1.2507    10.9388    -2.2623 C.3     
  37 C37            1.0046    13.6541     2.7868 C.3     
  38 C38            1.8451    14.8943     3.1632 C.3     
  39 C39            3.2180    14.2592     3.4839 C.3     
  40 C40            3.2204    12.9631     2.7036 C.2     
  41 O41            4.2066    12.3005     2.4603 O.2     
  42 H42           -0.3770     1.6009    -0.0304 H       
  43 H43           -0.2252    -0.9476    -0.8773 H       
  44 H44            3.9818     2.8935    -1.0587 H       
  45 H45            6.2727     6.8341     0.3157 H       
  46 H46            4.5761     8.5765    -0.0269 H       
  47 H47            1.6879     5.5657    -1.0328 H       
  48 H48            3.2235     9.7743    -0.3125 H       
  49 H49            5.5796     4.0079     2.1002 H       
  50 H50            4.5873     2.9594     1.0583 H       
  51 H51            6.3873     1.6757     2.2069 H       
  52 H52            6.5920     1.6555     0.4384 H       
  53 H53            9.2709     4.1531     0.4567 H       
  54 H54            8.2787     3.1046    -0.5853 H       
  55 H55            7.4709     5.4368    -0.6919 H       
  56 H56            7.2662     5.4570     1.0765 H       
  57 H57            9.8717    -0.4319     3.9366 H       
  58 H58           11.5842    -0.8328     2.2149 H       
  59 H59           11.5945     0.5028     0.1481 H       
  60 H60            9.8856     2.2381    -0.2072 H       
  61 H61            7.0330     0.6937     3.7442 H       
  62 H62            8.3005     1.2106     4.8819 H       
  63 H63            7.5137     2.4057     3.8232 H       
  64 H64            0.3377    10.1971    -0.4576 H       
  65 H65            2.6889    12.1266    -0.2176 H       
  66 H66            0.9765    12.6109    -0.1787 H       
  67 H67            0.6080    11.1493     1.7902 H       
  68 H68            2.3204    10.6651     1.7513 H       
  69 H69            3.3773    -1.5260    -2.3044 H       
  70 H70            2.2993    -2.4605    -1.2400 H       
  71 H71            1.7407    -1.9593    -2.8540 H       
  72 H72            2.2236    11.3107    -2.5836 H       
  73 H73            0.9880    10.0567    -2.8463 H       
  74 H74            0.4979    11.7123    -2.4138 H       
  75 H75            0.3014    13.9022     1.9917 H       
  76 H76            0.4706    13.2809     3.6607 H       
  77 H77            1.9211    15.5838     2.3224 H       
  78 H78            1.4323    15.3941     4.0395 H       
  79 H79            4.0265    14.9099     3.1506 H       
  80 H80            3.3049    14.0574     4.5515 H       
@<TRIPOS>BOND
   1    1    7 1
   2    1    2 2
   3    1   42 1
   4    2    3 1
   5    2    5 1
   6    3    4 2
   7    3    8 am
   8    5    6 1
   9    6    7 2
  10    6   35 1
  11    7   43 1
  12    8    9 1
  13    8   44 1
  14    9   10 ar
  15    9   14 ar
  16   10   11 ar
  17   10   18 1
  18   11   12 ar
  19   11   45 1
  20   12   13 ar
  21   12   46 1
  22   13   14 ar
  23   13   15 1
  24   14   47 1
  25   15   16 2
  26   15   17 am
  27   17   31 1
  28   17   48 1
  29   18   19 1
  30   18   23 1
  31   19   20 1
  32   19   49 1
  33   19   50 1
  34   20   21 1
  35   20   51 1
  36   20   52 1
  37   21   22 1
  38   21   24 1
  39   22   23 1
  40   22   53 1
  41   22   54 1
  42   23   55 1
  43   23   56 1
  44   24   25 ar
  45   24   29 ar
  46   25   26 ar
  47   25   30 1
  48   26   27 ar
  49   26   57 1
  50   27   28 ar
  51   27   58 1
  52   28   29 ar
  53   28   59 1
  54   29   60 1
  55   30   61 1
  56   30   62 1
  57   30   63 1
  58   31   32 1
  59   31   36 1
  60   31   64 1
  61   32   33 1
  62   32   65 1
  63   32   66 1
  64   33   34 1
  65   33   67 1
  66   33   68 1
  67   34   37 1
  68   34   40 am
  69   35   69 1
  70   35   70 1
  71   35   71 1
  72   36   72 1
  73   36   73 1
  74   36   74 1
  75   37   38 1
  76   37   75 1
  77   37   76 1
  78   38   39 1
  79   38   77 1
  80   38   78 1
  81   39   40 1
  82   39   79 1
  83   39   80 1
  84   40   41 2

#	End of record

