#	Name: ASD01209053
#	Creating user name:	WinNT
#	Creation time:	15. 06. 2019 19:10

#	Modifying user name:	WinNT
#	Modification time:	15. 06. 2019 19:10

#	Program:	/corina/corina34_cracker 3.40 0067  02.08.2006

@<TRIPOS>MOLECULE
ASD01209053
  57   61    0    0    0
SMALL
NO_CHARGES


@<TRIPOS>ATOM
   1 C1            -2.3115     1.6146    -0.8400 C.3     
   2 C2            -2.2189     0.0991    -1.0430 C.3     
   3 C3            -1.4483    -0.1856    -2.3358 C.3     
   4 C4            -2.1485     0.5152    -3.5030 C.3     
   5 C5            -2.9784     2.2458    -2.0650 C.3     
   6 C6            -1.4833    -0.5318     0.1409 C.3     
   7 C7            -1.5304    -2.0561     0.0170 C.3     
   8 C8            -0.7065    -2.6752     1.1166 C.2     
   9 N9             0.6325    -2.5222     1.1230 N.am    
  10 C10            1.4025    -3.1748     2.0802 C.2     
  11 N11           -2.9178    -2.5126     0.1302 N.pl3   
  12 C12           -3.6072    -3.2077    -0.8294 C.ar    
  13 C13           -4.8966    -3.4422    -0.3127 C.ar    
  14 C14           -4.9211    -2.8386     1.0161 C.2     
  15 N15           -3.7496    -2.3144     1.2370 N.2     
  16 O16           -1.2485    -3.3111     1.9957 O.2     
  17 O17           -2.2288     1.9168    -3.2363 O.3     
  18 C18           -3.2826    -3.6735    -2.0998 C.ar    
  19 C19           -4.2279    -4.3603    -2.8395 C.ar    
  20 C20           -5.5038    -4.5888    -2.3215 C.ar    
  21 C21           -5.8376    -4.1405    -1.0780 C.ar    
  22 C22           -7.1817    -5.5315     0.9832 C.3     
  23 C23           -8.4184    -6.0762     1.7008 C.3     
  24 C24           -7.5719    -7.0025     0.8254 C.3     
  25 N25           -3.9036    -4.8285    -4.1148 N.pl3   
  26 S26            3.1557    -3.0771     2.2207 S.3     
  27 C27            3.1013    -4.1617     3.6088 C.2     
  28 C28            1.8268    -4.4876     3.8347 C.2     
  29 N29            0.9433    -3.9484     3.0155 N.2     
  30 F30            4.1664    -4.5900     4.3212 F       
  31 S31           -7.4521    -4.4362    -0.4372 S.o2    
  32 O32           -7.8966    -3.1580    -0.0038 O.2     
  33 O33           -8.1219    -5.1295    -1.4812 O.2     
  34 H34           -2.9059     1.8274     0.0485 H       
  35 H35           -1.3103     2.0275    -0.7171 H       
  36 H36           -3.2220    -0.3209    -1.1164 H       
  37 H37           -0.4296     0.1909    -2.2431 H       
  38 H38           -1.4253    -1.2602    -2.5170 H       
  39 H39           -1.5805     0.3514    -4.4188 H       
  40 H40           -3.1532     0.1093    -3.6206 H       
  41 H41           -3.9940     1.8627    -2.1638 H       
  42 H42           -3.0083     3.3288    -1.9449 H       
  43 H43           -0.4452    -0.1993     0.1427 H       
  44 H44           -1.9637    -0.2279     1.0710 H       
  45 H45           -1.1275    -2.3545    -0.9509 H       
  46 H46            1.0593    -1.9570     0.4603 H       
  47 H47           -5.7597    -2.8320     1.6966 H       
  48 H48           -2.2973    -3.4992    -2.5063 H       
  49 H49           -6.2323    -5.1263    -2.9103 H       
  50 H50           -6.3059    -5.3052     1.5914 H       
  51 H51           -8.3561    -6.2087     2.7809 H       
  52 H52           -9.3945    -5.7764     1.3193 H       
  53 H53           -7.9910    -7.3121    -0.1320 H       
  54 H54           -6.9526    -7.7443     1.3296 H       
  55 H55           -3.0182    -4.6715    -4.4785 H       
  56 H56           -4.5639    -5.3107    -4.6368 H       
  57 H57            1.5365    -5.1472     4.6391 H       
@<TRIPOS>BOND
   1    1    2 1
   2    1    5 1
   3    1   34 1
   4    1   35 1
   5    2    3 1
   6    2    6 1
   7    2   36 1
   8    3    4 1
   9    3   37 1
  10    3   38 1
  11    4   17 1
  12    4   39 1
  13    4   40 1
  14    5   17 1
  15    5   41 1
  16    5   42 1
  17    6    7 1
  18    6   43 1
  19    6   44 1
  20    7    8 1
  21    7   11 1
  22    7   45 1
  23    8    9 am
  24    8   16 2
  25    9   10 1
  26    9   46 1
  27   10   26 1
  28   10   29 2
  29   11   12 1
  30   11   15 1
  31   12   13 ar
  32   12   18 ar
  33   13   14 1
  34   13   21 ar
  35   14   15 2
  36   14   47 1
  37   18   19 ar
  38   18   48 1
  39   19   20 ar
  40   19   25 1
  41   20   21 ar
  42   20   49 1
  43   21   31 1
  44   22   23 1
  45   22   31 1
  46   22   24 1
  47   22   50 1
  48   23   24 1
  49   23   51 1
  50   23   52 1
  51   24   53 1
  52   24   54 1
  53   25   55 1
  54   25   56 1
  55   26   27 1
  56   27   28 2
  57   27   30 1
  58   28   29 1
  59   28   57 1
  60   31   32 2
  61   31   33 2

#	End of record

