#	Name: ASD01000055
#	Creating user name:	WinNT
#	Creation time:	15. 06. 2019 18:54

#	Modifying user name:	WinNT
#	Modification time:	15. 06. 2019 18:54

#	Program:	/corina/corina34_cracker 3.40 0067  02.08.2006

@<TRIPOS>MOLECULE
ASD01000055
  53   55    0    0    0
SMALL
NO_CHARGES


@<TRIPOS>ATOM
   1 C1             0.5212     1.3709    -0.9008 C.ar    
   2 C2             0.5963     0.1849    -0.1946 C.ar    
   3 C3             1.1298    -0.9422    -0.7913 C.ar    
   4 C4             1.5878    -0.8834    -2.0942 C.ar    
   5 C5             1.5119     0.3023    -2.8007 C.ar    
   6 C6             0.9797     1.4298    -2.2036 C.ar    
   7 C7             1.2125    -2.2349    -0.0211 C.3     
   8 C8             2.6108    -2.7886    -0.1177 C.ar    
   9 C9             0.8716    -1.9810     1.4247 C.ar    
  10 C10           -0.2216    -2.6043     1.9968 C.ar    
  11 C11           -0.5345    -2.3713     3.3230 C.ar    
  12 C12            0.2462    -1.5154     4.0772 C.ar    
  13 C13            1.3399    -0.8927     3.5053 C.ar    
  14 C14            1.6553    -1.1291     2.1803 C.ar    
  15 C15            3.6823    -1.9331    -0.2922 C.ar    
  16 C16            4.9651    -2.4411    -0.3809 C.ar    
  17 C17            5.1761    -3.8043    -0.2945 C.ar    
  18 C18            4.1044    -4.6599    -0.1190 C.ar    
  19 C19            2.8224    -4.1518    -0.0260 C.ar    
  20 S20            0.0394    -3.4302    -0.7181 S.3     
  21 C21           -1.5337    -2.5278    -0.6798 C.3     
  22 C22           -2.6650    -3.4559    -1.1268 C.3     
  23 C23            6.5742    -4.3580    -0.3921 C.3     
  24 C24            4.3344    -6.1463    -0.0253 C.3     
  25 N25           -2.4025    -3.9246    -2.4940 N.3     
  26 C26           -3.9720    -2.7062    -1.0949 C.2     
  27 O27           -4.4378    -2.2606    -2.1168 O.2     
  28 O28           -4.6185    -2.5336     0.0686 O.3     
  29 H29            0.1003     2.2503    -0.4362 H       
  30 H30            0.2385     0.1389     0.8233 H       
  31 H31            2.0053    -1.7638    -2.5601 H       
  32 H32            1.8704     0.3485    -3.8184 H       
  33 H33            0.9201     2.3561    -2.7556 H       
  34 H34           -0.8316    -3.2730     1.4075 H       
  35 H35           -1.3890    -2.8577     3.7697 H       
  36 H36            0.0014    -1.3328     5.1131 H       
  37 H37            1.9496    -0.2237     4.0945 H       
  38 H38            2.5098    -0.6427     1.7336 H       
  39 H39            3.5174    -0.8679    -0.3597 H       
  40 H40            5.8023    -1.7727    -0.5180 H       
  41 H41            1.9852    -4.8202     0.1111 H       
  42 H42           -1.7285    -2.1800     0.3347 H       
  43 H43           -1.4783    -1.6722    -1.3528 H       
  44 H44           -2.7204    -4.3115    -0.4537 H       
  45 H45            7.0144    -4.4110     0.6037 H       
  46 H46            6.5400    -5.3566    -0.8278 H       
  47 H47            7.1797    -3.7070    -1.0228 H       
  48 H48            4.4928    -6.4245     1.0167 H       
  49 H49            3.4634    -6.6740    -0.4138 H       
  50 H50            5.2134    -6.4156    -0.6108 H       
  51 H51           -3.1018    -4.5895    -2.7888 H       
  52 H52           -2.3466    -3.1494    -3.1375 H       
  53 H53           -5.4531    -2.0462     0.0390 H       
@<TRIPOS>BOND
   1    1    2 ar
   2    1    6 ar
   3    1   29 1
   4    2    3 ar
   5    2   30 1
   6    3    4 ar
   7    3    7 1
   8    4    5 ar
   9    4   31 1
  10    5    6 ar
  11    5   32 1
  12    6   33 1
  13    7    8 1
  14    7    9 1
  15    7   20 1
  16    8   15 ar
  17    8   19 ar
  18    9   10 ar
  19    9   14 ar
  20   10   11 ar
  21   10   34 1
  22   11   12 ar
  23   11   35 1
  24   12   13 ar
  25   12   36 1
  26   13   14 ar
  27   13   37 1
  28   14   38 1
  29   15   16 ar
  30   15   39 1
  31   16   17 ar
  32   16   40 1
  33   17   18 ar
  34   17   23 1
  35   18   19 ar
  36   18   24 1
  37   19   41 1
  38   20   21 1
  39   21   22 1
  40   21   42 1
  41   21   43 1
  42   22   26 1
  43   22   25 1
  44   22   44 1
  45   23   45 1
  46   23   46 1
  47   23   47 1
  48   24   48 1
  49   24   49 1
  50   24   50 1
  51   25   51 1
  52   25   52 1
  53   26   27 2
  54   26   28 1
  55   28   53 1

#	End of record

