#	Name: ASD05060130
#	Creating user name:	WinNT
#	Creation time:	15. 06. 2019 20:56

#	Modifying user name:	WinNT
#	Modification time:	15. 06. 2019 20:56

#	Program:	/corina/corina34_cracker 3.40 0067  02.08.2006

@<TRIPOS>MOLECULE
ASD05060130
  59   63    0    0    0
SMALL
NO_CHARGES


@<TRIPOS>ATOM
   1 O1            -0.0173     1.4248     0.0099 O.3     
   2 O2             6.4134     0.1992    -2.9292 O.3     
   3 O3             2.9889     2.6847     1.6556 O.3     
   4 O4             1.0108     1.9770     2.3410 O.2     
   5 N5             0.0807     5.4111    -1.0068 N.ar    
   6 N6             4.6893     3.7301    -0.2394 N.ar    
   7 C7             2.1865     3.7052    -1.6351 C.ar    
   8 C8             1.2137     3.3552    -0.7020 C.ar    
   9 C9             3.3012     2.7938    -1.9635 C.ar    
  10 C10            1.2801     2.0237     0.0007 C.3     
  11 C11            5.5570     1.9656    -1.5687 C.ar    
  12 C12            0.0021    -0.0041     0.0020 C.3     
  13 C13            4.5127     2.8560    -1.2318 C.ar    
  14 C14            6.7611     2.0149    -0.8454 C.ar    
  15 C15            2.0574     5.0138    -2.2766 C.ar    
  16 C16            5.3937     1.0402    -2.6205 C.ar    
  17 C17            7.8717     1.0617    -1.1969 C.3     
  18 C18            0.1830     4.2419    -0.4236 C.ar    
  19 C19            3.1691     1.8704    -2.9909 C.ar    
  20 C20            0.9638     5.8377    -1.9154 C.ar    
  21 C21            7.7397     0.6734    -2.6747 C.3     
  22 C22            4.2041     1.0045    -3.3153 C.ar    
  23 C23            0.7421    -0.5109     1.2415 C.3     
  24 C24           -1.4333    -0.5336     0.0129 C.3     
  25 C25            0.7182    -0.4975    -1.2568 C.3     
  26 C26            6.8815     2.9286     0.1563 C.ar    
  27 C27            2.9814     5.4594    -3.2275 C.ar    
  28 C28            1.7497     2.2266     1.4182 C.2     
  29 C29           -0.8596     3.8448     0.5895 C.3     
  30 C30            5.8140     3.7815     0.4366 C.ar    
  31 C31            0.8295     7.0965    -2.5255 C.ar    
  32 C32            2.8196     6.6870    -3.7992 C.ar    
  33 C33            1.7463     7.5010    -3.4477 C.ar    
  34 H34            1.9780     1.3707    -0.5233 H       
  35 H35            8.8344     1.5451    -1.0307 H       
  36 H36            7.7969     0.1687    -0.5763 H       
  37 H37            2.2448     1.8245    -3.5476 H       
  38 H38            8.4576    -0.1126    -2.9092 H       
  39 H39            7.9395     1.5450    -3.2981 H       
  40 H40            4.0761     0.2961    -4.1204 H       
  41 H41            0.2319    -0.1594     2.1383 H       
  42 H42            0.7568    -1.6008     1.2356 H       
  43 H43            1.7647    -0.1336     1.2338 H       
  44 H44            1.7408    -0.1202    -1.2645 H       
  45 H45            0.7330    -1.5874    -1.2628 H       
  46 H46            0.1910    -0.1364    -2.1398 H       
  47 H47           -1.9605    -0.1726    -0.8702 H       
  48 H48           -1.4185    -1.6235     0.0069 H       
  49 H49           -1.9435    -0.1821     0.9097 H       
  50 H50            7.7949     2.9924     0.7290 H       
  51 H51            3.8177     4.8356    -3.5068 H       
  52 H52           -1.6763     3.3269     0.0866 H       
  53 H53           -0.4120     3.1833     1.3313 H       
  54 H54           -1.2445     4.7369     1.0835 H       
  55 H55            5.9155     4.5051     1.2319 H       
  56 H56            0.0025     7.7402    -2.2645 H       
  57 H57            3.5327     7.0317    -4.5335 H       
  58 H58            1.6388     8.4691    -3.9143 H       
  59 H59            3.2450     2.7987     2.5811 H       
@<TRIPOS>BOND
   1    1   12 1
   2    1   10 1
   3    2   16 1
   4    2   21 1
   5    3   28 1
   6    3   59 1
   7    4   28 2
   8    5   18 ar
   9    5   20 ar
  10    6   13 ar
  11    6   30 ar
  12    7    8 ar
  13    7    9 1
  14    7   15 ar
  15    8   10 1
  16    8   18 ar
  17    9   13 ar
  18    9   19 ar
  19   10   28 1
  20   10   34 1
  21   11   13 ar
  22   11   14 ar
  23   11   16 ar
  24   12   23 1
  25   12   24 1
  26   12   25 1
  27   14   17 1
  28   14   26 ar
  29   15   20 ar
  30   15   27 ar
  31   16   22 ar
  32   17   21 1
  33   17   35 1
  34   17   36 1
  35   18   29 1
  36   19   22 ar
  37   19   37 1
  38   20   31 ar
  39   21   38 1
  40   21   39 1
  41   22   40 1
  42   23   41 1
  43   23   42 1
  44   23   43 1
  45   24   47 1
  46   24   48 1
  47   24   49 1
  48   25   44 1
  49   25   45 1
  50   25   46 1
  51   26   30 ar
  52   26   50 1
  53   27   32 ar
  54   27   51 1
  55   29   52 1
  56   29   53 1
  57   29   54 1
  58   30   55 1
  59   31   33 ar
  60   31   56 1
  61   32   33 ar
  62   32   57 1
  63   33   58 1

#	End of record

