#	Name: ASD01811975
#	Creating user name:	WinNT
#	Creation time:	15. 06. 2019 19:27

#	Modifying user name:	WinNT
#	Modification time:	15. 06. 2019 19:27

#	Program:	/corina/corina34_cracker 3.40 0067  02.08.2006

@<TRIPOS>MOLECULE
ASD01811975
  34   36    0    0    0
SMALL
NO_CHARGES


@<TRIPOS>ATOM
   1 O1            -2.6438     1.1173    -0.4708 O.2     
   2 O2            -0.1108     1.4152    -0.1917 O.3     
   3 O3             1.0312    -0.4774     0.0241 O.2     
   4 N4            -3.7159    -0.8096    -0.2095 N.am    
   5 C5            -1.2377    -2.0785     0.2327 C.2     
   6 C6            -2.4456    -2.8153     0.2653 C.ar    
   7 C7             0.0826    -2.7651     0.4699 C.3     
   8 C8            -3.6749    -2.1645     0.0419 C.ar    
   9 C9            -1.2859    -0.7188    -0.0201 C.2     
  10 C10            0.3841    -2.7779     1.9464 C.ar    
  11 C11           -2.5863    -0.0783    -0.2472 C.2     
  12 C12           -2.4265    -4.1954     0.5193 C.ar    
  13 C13           -4.8541    -2.9040     0.0770 C.ar    
  14 C14           -3.5963    -4.8974     0.5483 C.ar    
  15 C15           -0.0428    -3.8337     2.7299 C.ar    
  16 C16            1.0924    -1.7365     2.5162 C.ar    
  17 C17           -4.8092    -4.2579     0.3290 C.ar    
  18 C18           -0.0481     0.0751    -0.0606 C.2     
  19 C19            0.2337    -3.8453     4.0843 C.ar    
  20 C20            1.3689    -1.7481     3.8705 C.ar    
  21 C21            0.9375    -2.8014     4.6550 C.ar    
  22 H22            0.0309    -3.7894     0.1008 H       
  23 H23            0.8712    -2.2283    -0.0574 H       
  24 H24           -4.5704    -0.3778    -0.3652 H       
  25 H25           -1.4877    -4.7010     0.6911 H       
  26 H26           -5.8030    -2.4169    -0.0927 H       
  27 H27           -3.5786    -5.9595     0.7437 H       
  28 H28           -0.5926    -4.6493     2.2840 H       
  29 H29            1.4300    -0.9139     1.9031 H       
  30 H30           -5.7264    -4.8275     0.3556 H       
  31 H31           -0.1004    -4.6699     4.6965 H       
  32 H32            1.9226    -0.9347     4.3156 H       
  33 H33            1.1532    -2.8103     5.7132 H       
  34 H34            0.7290     1.8940    -0.2134 H       
@<TRIPOS>BOND
   1    1   11 2
   2    2   18 1
   3    2   34 1
   4    3   18 2
   5    4    8 1
   6    4   11 am
   7    4   24 1
   8    5    6 1
   9    5    7 1
  10    5    9 2
  11    6    8 ar
  12    6   12 ar
  13    7   10 1
  14    7   22 1
  15    7   23 1
  16    8   13 ar
  17    9   11 1
  18    9   18 1
  19   10   15 ar
  20   10   16 ar
  21   12   14 ar
  22   12   25 1
  23   13   17 ar
  24   13   26 1
  25   14   17 ar
  26   14   27 1
  27   15   19 ar
  28   15   28 1
  29   16   20 ar
  30   16   29 1
  31   17   30 1
  32   19   21 ar
  33   19   31 1
  34   20   21 ar
  35   20   32 1
  36   21   33 1

#	End of record

