#	Name: ASD09610079
#	Creating user name:	WinNT
#	Creation time:	15. 06. 2019 21:22

#	Modifying user name:	WinNT
#	Modification time:	15. 06. 2019 21:22

#	Program:	/corina/corina34_cracker 3.40 0067  02.08.2006

@<TRIPOS>MOLECULE
ASD09610079
  53   55    0    0    0
SMALL
NO_CHARGES


@<TRIPOS>ATOM
   1 N1            -0.0209     1.8435     0.4792 N.pl3   
   2 N2             0.0039     0.6293    -0.2156 N.2     
   3 C3             1.2437     0.2859    -0.4272 C.2     
   4 C4             2.0764     1.2824     0.1325 C.2     
   5 C5             1.2459     2.2403     0.6905 C.2     
   6 C6             3.5477     1.2984     0.1240 C.2     
   7 O7             4.1449     1.8278    -0.7940 O.2     
   8 N8             4.2337     0.7266     1.1334 N.am    
   9 C9             1.7082    -0.9563    -1.1428 C.3     
  10 C10           -1.2249     2.5643     0.8999 C.3     
  11 F11            1.6367     3.3650     1.3289 F       
  12 C12            6.3917     0.7435     2.2372 C.ar    
  13 C13            5.6260     0.6379     1.0694 C.ar    
  14 C14            6.2561     0.4444    -0.1510 C.ar    
  15 C15            7.6338     0.3560    -0.2121 C.ar    
  16 C16            8.3926     0.4601     0.9404 C.ar    
  17 C17            7.7798     0.6528     2.1622 C.ar    
  18 C18            5.7290     0.9565     3.5455 C.ar    
  19 C19            6.0534     0.1434     4.6319 C.ar    
  20 C20            5.4385     0.3409     5.8478 C.ar    
  21 C21            4.4897     1.3554     5.9935 C.ar    
  22 C22            4.1656     2.1689     4.9055 C.ar    
  23 C23            4.7852     1.9736     3.6917 C.ar    
  24 C24            3.8494     1.5612     7.2577 C.1     
  25 C25            3.3244     1.7299     8.2942 C.1     
  26 C26            2.6661     1.9414     9.5937 C.3     
  27 C27            1.6791     3.1051     9.4820 C.3     
  28 C28            1.9139     0.6715     9.9970 C.3     
  29 C29            3.7211     2.2673    10.6528 C.3     
  30 H30            3.7603     0.3766     1.9044 H       
  31 H31            1.8095    -0.7458    -2.2075 H       
  32 H32            2.6721    -1.2682    -0.7408 H       
  33 H33            0.9789    -1.7533    -0.9978 H       
  34 H34           -1.5170     2.2331     1.8965 H       
  35 H35           -1.0198     3.6347     0.9184 H       
  36 H36           -2.0337     2.3614     0.1980 H       
  37 H37            5.6696     0.3624    -1.0541 H       
  38 H38            8.1207     0.2046    -1.1641 H       
  39 H39            9.4688     0.3899     0.8838 H       
  40 H40            8.3759     0.7334     3.0591 H       
  41 H41            6.7868    -0.6413     4.5190 H       
  42 H42            5.6894    -0.2888     6.6886 H       
  43 H43            3.4321     2.9537     5.0175 H       
  44 H44            4.5377     2.6052     2.8513 H       
  45 H45            0.9275     2.8729     8.7275 H       
  46 H46            1.1917     3.2617    10.4443 H       
  47 H47            2.2150     4.0097     9.1947 H       
  48 H48            2.6171    -0.1575    10.0766 H       
  49 H49            1.4265     0.8282    10.9593 H       
  50 H50            1.1623     0.4394     9.2425 H       
  51 H51            4.2570     3.1719    10.3654 H       
  52 H52            3.2337     2.4239    11.6150 H       
  53 H53            4.4243     1.4382    10.7323 H       
@<TRIPOS>BOND
   1    1    2 1
   2    1    5 1
   3    1   10 1
   4    2    3 2
   5    3    4 1
   6    3    9 1
   7    4    5 2
   8    4    6 1
   9    5   11 1
  10    6    7 2
  11    6    8 am
  12    8   13 1
  13    8   30 1
  14    9   31 1
  15    9   32 1
  16    9   33 1
  17   10   34 1
  18   10   35 1
  19   10   36 1
  20   12   13 ar
  21   12   17 ar
  22   12   18 1
  23   13   14 ar
  24   14   15 ar
  25   14   37 1
  26   15   16 ar
  27   15   38 1
  28   16   17 ar
  29   16   39 1
  30   17   40 1
  31   18   19 ar
  32   18   23 ar
  33   19   20 ar
  34   19   41 1
  35   20   21 ar
  36   20   42 1
  37   21   22 ar
  38   21   24 1
  39   22   23 ar
  40   22   43 1
  41   23   44 1
  42   24   25 3
  43   25   26 1
  44   26   27 1
  45   26   28 1
  46   26   29 1
  47   27   45 1
  48   27   46 1
  49   27   47 1
  50   28   48 1
  51   28   49 1
  52   28   50 1
  53   29   51 1
  54   29   52 1
  55   29   53 1

#	End of record

