#	Name: ASD04880397
#	Creating user name:	WinNT
#	Creation time:	15. 06. 2019 20:53

#	Modifying user name:	WinNT
#	Modification time:	15. 06. 2019 20:53

#	Program:	/corina/corina34_cracker 3.40 0067  02.08.2006

@<TRIPOS>MOLECULE
ASD04880397
  38   40    0    0    0
SMALL
NO_CHARGES


@<TRIPOS>ATOM
   1 C1            -0.0110     1.3876     0.0554 C.ar    
   2 C2             1.1769     2.0952     0.0898 C.ar    
   3 C3             2.3835     1.4266     0.0605 C.ar    
   4 C4             2.4052     0.0324    -0.0035 C.ar    
   5 C5             1.2039    -0.6778    -0.0377 C.ar    
   6 C6             0.0021     0.0031    -0.0083 C.ar    
   7 C7             3.6948    -0.6889    -0.0356 C.2     
   8 O8             3.7145    -1.9026     0.0364 O.2     
   9 N9             4.8489    -0.0014    -0.1447 N.am    
  10 C10            6.2000    -0.5795    -0.0686 C.3     
  11 N11            4.9576     1.3718    -0.3540 N.2     
  12 C12            6.1713     1.7992    -0.4238 C.2     
  13 C13            7.1258     0.6389    -0.2544 C.3     
  14 F14           -1.1621    -0.6817    -0.0408 F       
  15 C15            6.5679     3.2022    -0.6395 C.ar    
  16 C16            5.5911     4.1947    -0.7869 C.ar    
  17 C17            5.9761     5.5143    -0.9894 C.ar    
  18 C18            7.3217     5.8432    -1.0447 C.ar    
  19 C19            8.2874     4.8624    -0.8995 C.ar    
  20 C20            7.9205     3.5493    -0.6922 C.ar    
  21 O21            4.2729     3.8687    -0.7327 O.3     
  22 O22            5.0328     6.4833    -1.1338 O.3     
  23 C23            5.5000     7.8181    -1.3389 C.3     
  24 H24           -0.9526     1.9158     0.0827 H       
  25 H25            1.1599     3.1739     0.1394 H       
  26 H26            3.3098     1.9813     0.0868 H       
  27 H27            1.2140    -1.7566    -0.0876 H       
  28 H28            6.3651    -1.0418     0.9046 H       
  29 H29            6.3532    -1.3033    -0.8691 H       
  30 H30            7.7505     0.7833     0.6271 H       
  31 H31            7.7421     0.5177    -1.1453 H       
  32 H32            7.6179     6.8698    -1.2022 H       
  33 H33            9.3335     5.1274    -0.9442 H       
  34 H34            8.6782     2.7881    -0.5796 H       
  35 H35            3.8945     3.9071     0.1564 H       
  36 H36            6.1075     8.1253    -0.4875 H       
  37 H37            6.1014     7.8571    -2.2472 H       
  38 H38            4.6477     8.4902    -1.4383 H       
@<TRIPOS>BOND
   1    1    2 ar
   2    1    6 ar
   3    1   24 1
   4    2    3 ar
   5    2   25 1
   6    3    4 ar
   7    3   26 1
   8    4    5 ar
   9    4    7 1
  10    5    6 ar
  11    5   27 1
  12    6   14 1
  13    7    8 2
  14    7    9 am
  15    9   10 1
  16    9   11 1
  17   10   13 1
  18   10   28 1
  19   10   29 1
  20   11   12 2
  21   12   13 1
  22   12   15 1
  23   13   30 1
  24   13   31 1
  25   15   16 ar
  26   15   20 ar
  27   16   17 ar
  28   16   21 1
  29   17   18 ar
  30   17   22 1
  31   18   19 ar
  32   18   32 1
  33   19   20 ar
  34   19   33 1
  35   20   34 1
  36   21   35 1
  37   22   23 1
  38   23   36 1
  39   23   37 1
  40   23   38 1

#	End of record

