#	Name: ASD03240794
#	Creating user name:	WinNT
#	Creation time:	15. 06. 2019 20:35

#	Modifying user name:	WinNT
#	Modification time:	15. 06. 2019 20:35

#	Program:	/corina/corina34_cracker 3.40 0067  02.08.2006

@<TRIPOS>MOLECULE
ASD03240794
  70   76    0    0    0
SMALL
NO_CHARGES


@<TRIPOS>ATOM
   1 N1            -0.0178     1.4642     0.0101 N.3     
   2 C2             0.0021    -0.0041     0.0020 C.3     
   3 C3             0.7039    -0.5130     1.2631 C.3     
   4 C4             2.1331     0.0352     1.3025 C.3     
   5 C5             2.0858     1.5651     1.2611 C.3     
   6 C6             1.3439     2.0138     0.0000 C.3     
   7 C7             2.8099    -0.4136     2.5720 C.2     
   8 O8             2.2093    -1.1041     3.3679 O.2     
   9 N9             4.0825    -0.0476     2.8228 N.am    
  10 S10            6.3112    -0.0728     4.4383 S.3     
  11 C11            4.7068    -0.4616     3.9937 C.2     
  12 N12            4.1569    -1.1979     4.9079 N.2     
  13 C13            4.8969    -1.4971     5.9592 C.2     
  14 C14            6.1307    -0.9895     5.9319 C.2     
  15 C15           -0.8045     1.9863    -1.1153 C.3     
  16 C16           -1.0092     3.4690    -0.9402 C.ar    
  17 C17           -0.0910     4.3584    -1.4693 C.ar    
  18 C18           -0.2730     5.7171    -1.3127 C.ar    
  19 C19           -1.3857     6.1934    -0.6192 C.ar    
  20 C20           -2.3079     5.2916    -0.0881 C.ar    
  21 C21           -2.1175     3.9353    -0.2560 C.ar    
  22 C22            0.2757    11.9092     0.1996 C.2     
  23 N23           -0.9399    12.4844     0.2013 N.2     
  24 C24           -2.0370    11.7884     0.0495 C.2     
  25 C25           -1.9409    10.3410    -0.1283 C.ar    
  26 C26           -0.6623     9.7434    -0.1287 C.ar    
  27 N27            0.4396    10.5599     0.0390 N.pl3   
  28 C28           -3.0775     9.5434    -0.2957 C.ar    
  29 C29           -2.8941     8.1738    -0.4578 C.ar    
  30 C30           -1.5868     7.6504    -0.4471 C.ar    
  31 N31           -0.5336     8.4377    -0.2864 N.ar    
  32 N32            1.8119    10.2859     0.0849 N.2     
  33 C33            2.4617    11.4107     0.2650 C.2     
  34 C34            1.5451    12.4513     0.3479 C.2     
  35 C35           -4.0604     7.2766    -0.6389 C.ar    
  36 C36           -5.1405     7.3471     0.2395 C.ar    
  37 C37           -6.2236     6.5098     0.0657 C.ar    
  38 C38           -6.2387     5.6014    -0.9775 C.ar    
  39 C39           -5.1695     5.5267    -1.8521 C.ar    
  40 C40           -4.0837     6.3632    -1.6918 C.ar    
  41 C41            3.9584    11.5507     0.3705 C.3     
  42 H42           -1.0204    -0.3810    -0.0218 H       
  43 H43            0.5390    -0.3552    -0.8792 H       
  44 H44            0.1597    -0.1738     2.1445 H       
  45 H45            0.7324    -1.6025     1.2493 H       
  46 H46            2.6892    -0.3354     0.4414 H       
  47 H47            1.5633     1.9370     2.1425 H       
  48 H48            3.1015     1.9603     1.2458 H       
  49 H49            1.8745     1.6533    -0.8812 H       
  50 H50            1.2960     3.1025    -0.0252 H       
  51 H51            4.5628     0.5046     2.1862 H       
  52 H52            4.5331    -2.1035     6.7755 H       
  53 H53            6.8865    -1.1181     6.6925 H       
  54 H54           -0.2719     1.8007    -2.0480 H       
  55 H55           -1.7729     1.4868    -1.1444 H       
  56 H56            0.7703     3.9884    -2.0056 H       
  57 H57            0.4446     6.4104    -1.7258 H       
  58 H58           -3.1712     5.6543     0.4501 H       
  59 H59           -2.8330     3.2363     0.1512 H       
  60 H60           -3.0004    12.2766     0.0553 H       
  61 H61           -4.0666     9.9770    -0.2984 H       
  62 H62            1.7784    13.4950     0.4987 H       
  63 H63           -5.1296     8.0554     1.0547 H       
  64 H64           -7.0610     6.5635     0.7456 H       
  65 H65           -7.0883     4.9479    -1.1095 H       
  66 H66           -5.1865     4.8153    -2.6645 H       
  67 H67           -3.2514     6.3071    -2.3778 H       
  68 H68            4.3790    11.7134    -0.6218 H       
  69 H69            4.1997    12.3991     1.0109 H       
  70 H70            4.3792    10.6410     0.7988 H       
@<TRIPOS>BOND
   1    1    2 1
   2    1    6 1
   3    1   15 1
   4    2    3 1
   5    2   42 1
   6    2   43 1
   7    3    4 1
   8    3   44 1
   9    3   45 1
  10    4    5 1
  11    4    7 1
  12    4   46 1
  13    5    6 1
  14    5   47 1
  15    5   48 1
  16    6   49 1
  17    6   50 1
  18    7    8 2
  19    7    9 am
  20    9   11 1
  21    9   51 1
  22   10   11 1
  23   10   14 1
  24   11   12 2
  25   12   13 1
  26   13   14 2
  27   13   52 1
  28   14   53 1
  29   15   16 1
  30   15   54 1
  31   15   55 1
  32   16   17 ar
  33   16   21 ar
  34   17   18 ar
  35   17   56 1
  36   18   19 ar
  37   18   57 1
  38   19   20 ar
  39   19   30 1
  40   20   21 ar
  41   20   58 1
  42   21   59 1
  43   22   23 1
  44   22   27 1
  45   22   34 2
  46   23   24 2
  47   24   25 1
  48   24   60 1
  49   25   26 ar
  50   25   28 ar
  51   26   27 1
  52   26   31 ar
  53   27   32 1
  54   28   29 ar
  55   28   61 1
  56   29   30 ar
  57   29   35 1
  58   30   31 ar
  59   32   33 2
  60   33   34 1
  61   33   41 1
  62   34   62 1
  63   35   36 ar
  64   35   40 ar
  65   36   37 ar
  66   36   63 1
  67   37   38 ar
  68   37   64 1
  69   38   39 ar
  70   38   65 1
  71   39   40 ar
  72   39   66 1
  73   40   67 1
  74   41   68 1
  75   41   69 1
  76   41   70 1

#	End of record

