#	Name: ASD03092223
#	Creating user name:	WinNT
#	Creation time:	15. 06. 2019 20:32

#	Modifying user name:	WinNT
#	Modification time:	15. 06. 2019 20:32

#	Program:	/corina/corina34_cracker 3.40 0067  02.08.2006

@<TRIPOS>MOLECULE
ASD03092223
  36   37    0    0    0
SMALL
NO_CHARGES


@<TRIPOS>ATOM
   1 C1             0.4435     1.5744     0.1042 C.3     
   2 O2             0.3751     0.1531     0.2349 O.3     
   3 C3             0.5870    -0.5540    -0.9887 C.3     
   4 C4             0.4933    -2.0365    -0.7349 C.2     
   5 N5             1.5250    -2.7691    -0.4040 N.2     
   6 C6             1.3173    -4.0405    -0.2106 C.2     
   7 N7             2.2910    -4.9511     0.1422 N.pl3   
   8 C8             1.9864    -6.3143     0.1959 C.ar    
   9 C9             1.1173    -6.8705    -0.7338 C.ar    
  10 C10            0.8189    -8.2179    -0.6781 C.ar    
  11 C11            1.3843    -9.0129     0.3017 C.ar    
  12 C12            2.2503    -8.4623     1.2290 C.ar    
  13 C13            2.5570    -7.1170     1.1759 C.ar    
  14 C14            2.8642    -9.3327     2.2951 C.3     
  15 F15            2.4107   -10.6473     2.1422 F       
  16 F16            4.2578    -9.3032     2.1759 F       
  17 F17            2.4939    -8.8556     3.5571 F       
  18 S18           -0.3307    -4.4221    -0.4548 S.3     
  19 C19           -0.6800    -2.7352    -0.8244 C.2     
  20 C20           -1.9490    -2.1982    -1.1573 C.2     
  21 O21           -2.0635    -1.0104    -1.3954 O.2     
  22 O22           -3.0300    -3.0042    -1.2102 O.3     
  23 C23           -4.2769    -2.3956    -1.5521 C.3     
  24 H24            1.4290     1.8584    -0.2649 H       
  25 H25           -0.3186     1.9118    -0.5984 H       
  26 H26            0.2722     2.0374     1.0760 H       
  27 H27           -0.1721    -0.2608    -1.7139 H       
  28 H28            1.5755    -0.3142    -1.3804 H       
  29 H29            3.1871    -4.6457     0.3531 H       
  30 H30            0.6750    -6.2500    -1.4991 H       
  31 H31            0.1429    -8.6510    -1.4005 H       
  32 H32            1.1491   -10.0662     0.3432 H       
  33 H33            3.2367    -6.6886     1.8976 H       
  34 H34           -5.0610    -3.1528    -1.5589 H       
  35 H35           -4.5198    -1.6277    -0.8177 H       
  36 H36           -4.2010    -1.9423    -2.5404 H       
@<TRIPOS>BOND
   1    1    2 1
   2    1   24 1
   3    1   25 1
   4    1   26 1
   5    2    3 1
   6    3    4 1
   7    3   27 1
   8    3   28 1
   9    4   19 2
  10    4    5 1
  11    5    6 2
  12    6    7 1
  13    6   18 1
  14    7    8 1
  15    7   29 1
  16    8   13 ar
  17    8    9 ar
  18    9   10 ar
  19    9   30 1
  20   10   11 ar
  21   10   31 1
  22   11   12 ar
  23   11   32 1
  24   12   13 ar
  25   12   14 1
  26   13   33 1
  27   14   15 1
  28   14   16 1
  29   14   17 1
  30   18   19 1
  31   19   20 1
  32   20   21 2
  33   20   22 1
  34   22   23 1
  35   23   34 1
  36   23   35 1
  37   23   36 1

#	End of record

