#	Name: ASD01840331
#	Creating user name:	WinNT
#	Creation time:	15. 06. 2019 19:37

#	Modifying user name:	WinNT
#	Modification time:	15. 06. 2019 19:37

#	Program:	/corina/corina34_cracker 3.40 0067  02.08.2006

@<TRIPOS>MOLECULE
ASD01840331
  63   67    0    0    0
SMALL
NO_CHARGES


@<TRIPOS>ATOM
   1 C1            -8.1528    -1.4291     0.4581 C.3     
   2 C2            -7.3235    -2.6868     0.4185 C.ar    
   3 N3            -7.0800    -3.2804    -0.7360 N.ar    
   4 N4            -6.3820    -4.3498    -0.8276 N.ar    
   5 C5            -5.8459    -4.9473     0.2407 C.ar    
   6 S6            -4.8656    -6.3998     0.3567 S.3     
   7 C7            -4.7220    -6.2731     2.1004 C.ar    
   8 C8            -4.0526    -7.0972     3.0286 C.ar    
   9 N9            -3.3614    -8.2203     2.6019 N.pl3   
  10 C10           -2.6699    -9.0687     3.5757 C.3     
  11 C11           -2.0019   -10.2139     2.8593 C.ar    
  12 C12           -2.6885   -11.3963     2.6553 C.ar    
  13 C13           -2.0757   -12.4468     1.9982 C.ar    
  14 C14           -0.7765   -12.3148     1.5447 C.ar    
  15 C15           -0.1083   -13.4602     0.8287 C.3     
  16 N16           -0.3625   -13.3510    -0.6140 N.3     
  17 C17           -1.8077   -13.1392    -0.8854 C.3     
  18 C18           -1.9961   -13.5778    -2.3536 C.3     
  19 C19           -0.8355   -14.5550    -2.6321 C.3     
  20 C20           -0.0435   -14.6247    -1.3088 C.3     
  21 C21            1.4576   -14.7179    -1.5896 C.3     
  22 C22            1.7375   -15.9398    -2.4669 C.3     
  23 C23            1.9203   -13.4526    -2.3148 C.3     
  24 O24            2.1661   -14.8454    -0.3552 O.3     
  25 C25           -0.0905   -11.1320     1.7475 C.ar    
  26 C26           -0.7045   -10.0801     2.4013 C.ar    
  27 N27           -4.0941    -6.7812     4.3153 N.ar    
  28 C28           -4.7505    -5.7123     4.7277 C.ar    
  29 N29           -5.3863    -4.9196     3.9004 N.ar    
  30 C30           -5.3993    -5.1609     2.5734 C.ar    
  31 C31           -6.0482    -4.3945     1.5035 C.ar    
  32 C32           -6.8147    -3.2139     1.5877 C.ar    
  33 C33           -7.0744    -2.5504     2.9156 C.3     
  34 H34           -7.5019    -0.5613     0.3519 H       
  35 H35           -8.8746    -1.4440    -0.3584 H       
  36 H36           -8.6816    -1.3724     1.4096 H       
  37 H37           -3.3356    -8.4446     1.6586 H       
  38 H38           -1.9176    -8.4802     4.1008 H       
  39 H39           -3.3910    -9.4601     4.2934 H       
  40 H40           -3.7035   -11.4994     3.0096 H       
  41 H41           -2.6118   -13.3708     1.8394 H       
  42 H42            0.9656   -13.4263     1.0120 H       
  43 H43           -0.5104   -14.4036     1.1981 H       
  44 H44           -2.4135   -13.7578    -0.2232 H       
  45 H45           -2.0666   -12.0871    -0.7667 H       
  46 H46           -2.9542   -14.0825    -2.4780 H       
  47 H47           -1.9326   -12.7155    -3.0174 H       
  48 H48           -1.2239   -15.5395    -2.8932 H       
  49 H49           -0.2023   -14.1725    -3.4326 H       
  50 H50           -0.3732   -15.4757    -0.7128 H       
  51 H51            1.2675   -15.8031    -3.4408 H       
  52 H52            2.8136   -16.0557    -2.5958 H       
  53 H53            1.3308   -16.8310    -1.9890 H       
  54 H54            1.7209   -12.5821    -1.6898 H       
  55 H55            2.9897   -13.5190    -2.5149 H       
  56 H56            1.3799   -13.3553    -3.2564 H       
  57 H57            2.1975   -14.0317     0.1662 H       
  58 H58            0.9244   -11.0287     1.3929 H       
  59 H59           -0.1697    -9.1548     2.5567 H       
  60 H60           -4.7642    -5.4838     5.7832 H       
  61 H61           -7.9878    -2.9550     3.3515 H       
  62 H62           -6.2366    -2.7401     3.5865 H       
  63 H63           -7.1866    -1.4761     2.7692 H       
@<TRIPOS>BOND
   1    1    2 1
   2    1   34 1
   3    1   35 1
   4    1   36 1
   5    2   32 ar
   6    2    3 ar
   7    3    4 ar
   8    4    5 ar
   9    5   31 ar
  10    5    6 1
  11    6    7 1
  12    7   30 ar
  13    7    8 ar
  14    8    9 1
  15    8   27 ar
  16    9   10 1
  17    9   37 1
  18   10   11 1
  19   10   38 1
  20   10   39 1
  21   11   26 ar
  22   11   12 ar
  23   12   13 ar
  24   12   40 1
  25   13   14 ar
  26   13   41 1
  27   14   15 1
  28   14   25 ar
  29   15   16 1
  30   15   42 1
  31   15   43 1
  32   16   20 1
  33   16   17 1
  34   17   18 1
  35   17   44 1
  36   17   45 1
  37   18   19 1
  38   18   46 1
  39   18   47 1
  40   19   20 1
  41   19   48 1
  42   19   49 1
  43   20   21 1
  44   20   50 1
  45   21   22 1
  46   21   23 1
  47   21   24 1
  48   22   51 1
  49   22   52 1
  50   22   53 1
  51   23   54 1
  52   23   55 1
  53   23   56 1
  54   24   57 1
  55   25   26 ar
  56   25   58 1
  57   26   59 1
  58   27   28 ar
  59   28   29 ar
  60   28   60 1
  61   29   30 ar
  62   30   31 1
  63   31   32 ar
  64   32   33 1
  65   33   61 1
  66   33   62 1
  67   33   63 1

#	End of record

