#	Name: ASD03750002
#	Creating user name:	WinNT
#	Creation time:	15. 06. 2019 20:47

#	Modifying user name:	WinNT
#	Modification time:	15. 06. 2019 20:47

#	Program:	/corina/corina34_cracker 3.40 0067  02.08.2006

@<TRIPOS>MOLECULE
ASD03750002
  73   74    0    0    0
SMALL
NO_CHARGES


@<TRIPOS>ATOM
   1 C1             0.1463     1.3228    -0.0340 C.2     
   2 C2             0.2644    -0.0955    -0.0979 C.2     
   3 C3             1.4870    -0.6504    -0.1447 C.2     
   4 C4             1.7783    -2.0652    -0.2474 C.2     
   5 C5             0.9913    -3.0261    -0.7031 C.2     
   6 C6             1.5176    -4.4501    -0.6891 C.3     
   7 C7            -0.3863    -2.7849    -1.2556 C.3     
   8 C8            -1.4230    -3.0946    -0.2097 C.2     
   9 O9            -1.0959    -3.2254     0.9514 O.2     
  10 C10           -2.8300    -3.2387    -0.5817 C.2     
  11 C11           -3.2212    -3.0555    -1.8435 C.2     
  12 C12           -4.6744    -3.2111    -2.2122 C.3     
  13 C13           -5.1631    -1.9405    -2.9096 C.3     
  14 O14           -4.7772    -0.7963    -2.1444 O.3     
  15 C15           -5.0793     0.4517    -2.7746 C.3     
  16 C16           -6.6051     0.6157    -2.8489 C.3     
  17 C17           -7.2034    -0.6314    -3.4468 C.2     
  18 C18           -6.6883    -1.9864    -3.0341 C.3     
  19 C19           -4.5108     1.5830    -1.9675 C.2     
  20 C20           -3.2460     1.9270    -1.9882 C.2     
  21 C21           -2.8137     3.0945    -1.1376 C.3     
  22 C22           -2.2484     1.1904    -2.8396 C.3     
  23 C23           -1.3316     3.0246    -0.7802 C.3     
  24 O24            1.1475     2.0117    -0.0491 O.2     
  25 O25           -1.0751     1.8881     0.0487 O.3     
  26 C26           -0.9548     4.2987    -0.0086 C.3     
  27 N27            0.4661     4.2531     0.3453 N.am    
  28 O28           -1.2053     5.4429    -0.8273 O.3     
  29 C29            0.8738     4.6880     1.5541 C.2     
  30 C30            2.2923     4.6424     1.9074 C.2     
  31 O31            0.0615     5.1186     2.3517 O.2     
  32 C32            2.7193     5.1988     3.0630 C.2     
  33 C33            1.8037     6.0095     3.8668 C.2     
  34 C34            2.1873     6.4620     5.0617 C.2     
  35 C35            1.2445     7.2969     5.8894 C.3     
  36 C36           -8.1705    -0.5385    -4.3252 C.2     
  37 H37           -0.6370    -0.6832    -0.0891 H       
  38 H38            2.3427     0.0389    -0.1028 H       
  39 H39            2.7776    -2.3873     0.0929 H       
  40 H40            2.5275    -4.4602    -0.2791 H       
  41 H41            0.8687    -5.0712    -0.0716 H       
  42 H42            1.5345    -4.8413    -1.7063 H       
  43 H43           -0.4826    -1.7506    -1.5787 H       
  44 H44           -0.5432    -3.4374    -2.1200 H       
  45 H45           -3.5612    -3.5013     0.1705 H       
  46 H46           -2.5010    -2.7936    -2.6042 H       
  47 H47           -4.7894    -4.0621    -2.8850 H       
  48 H48           -5.2626    -3.3785    -1.3099 H       
  49 H49           -4.7216    -1.8807    -3.9045 H       
  50 H50           -4.6898     0.4559    -3.7904 H       
  51 H51           -7.0029     0.7686    -1.8465 H       
  52 H52           -6.8463     1.4736    -3.4759 H       
  53 H53           -6.9704    -2.7264    -3.7832 H       
  54 H54           -7.1215    -2.2617    -2.0726 H       
  55 H55           -5.1798     2.1548    -1.3258 H       
  56 H56           -3.0111     4.0242    -1.6780 H       
  57 H57           -3.4037     3.1015    -0.2156 H       
  58 H58           -2.7532     0.3901    -3.3806 H       
  59 H59           -1.7974     1.8819    -3.5513 H       
  60 H60           -1.4717     0.7655    -2.2038 H       
  61 H61           -0.7222     2.9771    -1.6801 H       
  62 H62           -1.5536     4.3639     0.8998 H       
  63 H63            1.1134     3.9099    -0.2903 H       
  64 H64           -0.7047     5.4518    -1.6546 H       
  65 H65            2.9987     4.1642     1.2450 H       
  66 H66            3.7360     5.0450     3.3931 H       
  67 H67            0.8175     6.2414     3.4927 H       
  68 H68            3.1736     6.2301     5.4358 H       
  69 H69            0.3426     6.7231     6.1024 H       
  70 H70            1.7296     7.5720     6.8260 H       
  71 H71            0.9794     8.1994     5.3387 H       
  72 H72           -8.5396     0.4322    -4.6215 H       
  73 H73           -8.5988    -1.4328    -4.7534 H       
@<TRIPOS>BOND
   1    1    2 1
   2    1   24 2
   3    1   25 1
   4    2    3 2
   5    2   37 1
   6    3    4 1
   7    3   38 1
   8    4    5 2
   9    4   39 1
  10    5    6 1
  11    5    7 1
  12    6   40 1
  13    6   41 1
  14    6   42 1
  15    7    8 1
  16    7   43 1
  17    7   44 1
  18    8    9 2
  19    8   10 1
  20   10   11 2
  21   10   45 1
  22   11   12 1
  23   11   46 1
  24   12   13 1
  25   12   47 1
  26   12   48 1
  27   13   14 1
  28   13   18 1
  29   13   49 1
  30   14   15 1
  31   15   16 1
  32   15   19 1
  33   15   50 1
  34   16   17 1
  35   16   51 1
  36   16   52 1
  37   17   18 1
  38   17   36 2
  39   18   53 1
  40   18   54 1
  41   19   20 2
  42   19   55 1
  43   20   21 1
  44   20   22 1
  45   21   23 1
  46   21   56 1
  47   21   57 1
  48   22   58 1
  49   22   59 1
  50   22   60 1
  51   23   25 1
  52   23   26 1
  53   23   61 1
  54   26   27 1
  55   26   28 1
  56   26   62 1
  57   27   29 am
  58   27   63 1
  59   28   64 1
  60   29   30 1
  61   29   31 2
  62   30   32 2
  63   30   65 1
  64   32   33 1
  65   32   66 1
  66   33   34 2
  67   33   67 1
  68   34   35 1
  69   34   68 1
  70   35   69 1
  71   35   70 1
  72   35   71 1
  73   36   72 1
  74   36   73 1

#	End of record

