#	Name: ASD05730137
#	Creating user name:	WinNT
#	Creation time:	15. 06. 2019 21:02

#	Modifying user name:	WinNT
#	Modification time:	15. 06. 2019 21:02

#	Program:	/corina/corina34_cracker 3.40 0067  02.08.2006

@<TRIPOS>MOLECULE
ASD05730137
  70   76    0    0    0
SMALL
NO_CHARGES


@<TRIPOS>ATOM
   1 C1             0.0281     1.5045     0.0298 C.3     
   2 C2             0.0360    -0.0024     0.0158 C.ar    
   3 C3            -0.9930    -0.7033     0.6176 C.ar    
   4 C4            -0.9889    -2.0843     0.6067 C.ar    
   5 C5             0.0505    -2.7692    -0.0098 C.ar    
   6 C6             1.0826    -2.0621    -0.6134 C.ar    
   7 C7             1.0694    -0.6812    -0.6037 C.ar    
   8 N8             0.0580    -4.1672    -0.0224 N.pl3   
   9 C9             0.5627    -4.8454    -1.1149 C.ar    
  10 N10            0.6624    -6.1646    -1.0562 N.ar    
  11 C11            1.1423    -6.8521    -2.0866 C.ar    
  12 C12            1.5431    -6.1478    -3.2431 C.ar    
  13 C13            1.4175    -4.7499    -3.2555 C.ar    
  14 N14            0.9252    -4.1505    -2.1877 N.ar    
  15 N15            1.2484    -8.2187    -2.0317 N.am    
  16 C16            1.7357    -8.9161    -3.0755 C.2     
  17 C17            2.1629    -8.2219    -4.2940 C.2     
  18 C18            2.0577    -6.8453    -4.3584 C.2     
  19 C19            0.8266    -8.9287    -0.8216 C.3     
  20 O20            1.8222   -10.1290    -3.0069 O.2     
  21 C21            2.6975    -8.9842    -5.4390 C.2     
  22 S22            1.5161     2.1156     0.8791 S.3     
  23 C23           -0.6306    -9.2953    -0.9365 C.2     
  24 N24           -1.0778   -10.3959    -1.4400 N.2     
  25 N25            2.0937    -9.9802    -6.0512 N.2     
  26 C26            2.8748   -10.4285    -7.0413 C.2     
  27 C27            4.0061    -9.6954    -7.0567 C.2     
  28 N28            3.9008    -8.7731    -6.0483 N.pl3   
  29 S29            2.4899   -11.7523    -8.1386 S.o2    
  30 C30            1.6398   -10.9554    -9.5288 C.3     
  31 C31            1.0633   -11.8622   -10.6179 C.3     
  32 O32            3.7572   -12.2485    -8.5473 O.2     
  33 O33            1.5871   -12.5663    -7.4026 O.2     
  34 C34            0.0377     2.0328    -1.4088 C.3     
  35 C35            0.1265   -11.1525    -9.6383 C.3     
  36 N36           -0.0110     3.4966    -1.4016 N.3     
  37 C37            1.2530     4.0988    -0.9714 C.3     
  38 C38            1.4375     3.9004     0.5369 C.3     
  39 C39            4.8951    -7.7598    -5.6866 C.3     
  40 C40           -2.3853   -10.5583    -1.4634 C.2     
  41 C41           -3.0798    -9.5379    -0.9510 C.2     
  42 S42           -1.9304    -8.3162    -0.4118 S.3     
  43 H43           -0.8619     1.8613     0.5481 H       
  44 H44           -1.8006    -0.1701     1.0971 H       
  45 H45           -1.7926    -2.6310     1.0772 H       
  46 H46            1.8923    -2.5917    -1.0932 H       
  47 H47            1.8713    -0.1308    -1.0731 H       
  48 H48           -0.2911    -4.6609     0.7361 H       
  49 H49            1.7138    -4.1773    -4.1219 H       
  50 H50            2.3661    -6.3118    -5.2454 H       
  51 H51            1.4212    -9.8349    -0.7061 H       
  52 H52            0.9721    -8.2855     0.0463 H       
  53 H53            4.8364    -9.8101    -7.7377 H       
  54 H54            2.0460    -9.9924    -9.8385 H       
  55 H55            1.0898   -11.4957   -11.6441 H       
  56 H56            1.1948   -12.9377   -10.4991 H       
  57 H57            0.9480     1.7031    -1.9096 H       
  58 H58           -0.8293     1.6442    -1.9430 H       
  59 H59           -0.3582   -11.7610    -8.8749 H       
  60 H60           -0.4632   -10.3191   -10.0200 H       
  61 H61           -0.2935     3.8535    -2.3021 H       
  62 H62            2.0789     3.6256    -1.5026 H       
  63 H63            1.2418     5.1650    -1.1978 H       
  64 H64            0.5937     4.3386     1.0698 H       
  65 H65            2.3642     4.3760     0.8582 H       
  66 H66            4.6515    -6.8192    -6.1807 H       
  67 H67            4.8896    -7.6147    -4.6063 H       
  68 H68            5.8838    -8.0914    -6.0036 H       
  69 H69           -2.8571   -11.4434    -1.8641 H       
  70 H70           -4.1554    -9.4750    -0.8770 H       
@<TRIPOS>BOND
   1    1    2 1
   2    1   22 1
   3    1   34 1
   4    1   43 1
   5    2    3 ar
   6    2    7 ar
   7    3    4 ar
   8    3   44 1
   9    4    5 ar
  10    4   45 1
  11    5    6 ar
  12    5    8 1
  13    6    7 ar
  14    6   46 1
  15    7   47 1
  16    8    9 1
  17    8   48 1
  18    9   10 ar
  19    9   14 ar
  20   10   11 ar
  21   11   12 ar
  22   11   15 1
  23   12   13 ar
  24   12   18 1
  25   13   14 ar
  26   13   49 1
  27   15   16 am
  28   15   19 1
  29   16   17 1
  30   16   20 2
  31   17   18 2
  32   17   21 1
  33   18   50 1
  34   19   23 1
  35   19   51 1
  36   19   52 1
  37   21   25 2
  38   21   28 1
  39   22   38 1
  40   23   24 2
  41   23   42 1
  42   24   40 1
  43   25   26 1
  44   26   27 2
  45   26   29 1
  46   27   28 1
  47   27   53 1
  48   28   39 1
  49   29   30 1
  50   29   32 2
  51   29   33 2
  52   30   31 1
  53   30   35 1
  54   30   54 1
  55   31   35 1
  56   31   55 1
  57   31   56 1
  58   34   36 1
  59   34   57 1
  60   34   58 1
  61   35   59 1
  62   35   60 1
  63   36   37 1
  64   36   61 1
  65   37   38 1
  66   37   62 1
  67   37   63 1
  68   38   64 1
  69   38   65 1
  70   39   66 1
  71   39   67 1
  72   39   68 1
  73   40   41 2
  74   40   69 1
  75   41   42 1
  76   41   70 1

#	End of record

