#	Name: ASD08150287
#	Creating user name:	WinNT
#	Creation time:	15. 06. 2019 21:15

#	Modifying user name:	WinNT
#	Modification time:	15. 06. 2019 21:15

#	Program:	/corina/corina34_cracker 3.40 0067  02.08.2006

@<TRIPOS>MOLECULE
ASD08150287
  84   89    0    0    0
SMALL
NO_CHARGES


@<TRIPOS>ATOM
   1 O1            -1.5351     2.1805    -0.1752 O.3     
   2 C2            -1.7341     0.8781     0.0557 C.2     
   3 N3            -0.7778     0.3074     0.8010 N.am    
   4 C4             0.2276     1.3244     1.1454 C.3     
   5 C5            -0.3005     2.6055     0.4714 C.3     
   6 O6            -2.6945     0.2683    -0.3710 O.2     
   7 C7             0.7002     3.1170    -0.5668 C.3     
   8 O8             0.1998     4.3170    -1.1598 O.3     
   9 Si9            1.2059     4.9846    -2.2563 Si      
  10 C10            0.7092     6.7600    -2.5573 C.ar    
  11 C11            1.6265     7.7763    -2.3658 C.ar    
  12 C12            1.2589     9.0901    -2.5885 C.ar    
  13 C13           -0.0259     9.3876    -3.0031 C.ar    
  14 C14           -0.9429     8.3713    -3.1954 C.ar    
  15 C15           -0.5740     7.0571    -2.9769 C.ar    
  16 C16            2.9574     4.9292    -1.6092 C.ar    
  17 C17            3.3982     5.8955    -0.7244 C.ar    
  18 C18            4.6943     5.8545    -0.2455 C.ar    
  19 C19            5.5495     4.8470    -0.6511 C.ar    
  20 C20            5.1084     3.8802    -1.5352 C.ar    
  21 C21            3.8109     3.9187    -2.0107 C.ar    
  22 C22            1.1037     4.0318    -3.8539 C.3     
  23 C23           -0.2222     4.3444    -4.5503 C.3     
  24 C24            2.2654     4.4359    -4.7639 C.3     
  25 C25            1.1842     2.5325    -3.5596 C.3     
  26 C26            0.2483    -2.7369     2.3824 C.ar    
  27 N27           -0.6411    -3.6191     1.9547 N.ar    
  28 C28           -1.6198    -3.2541     1.1265 C.ar    
  29 C29           -1.6966    -1.9246     0.7133 C.ar    
  30 C30           -0.7418    -1.0284     1.1861 C.ar    
  31 N31            0.2053    -1.4664     2.0102 N.ar    
  32 C32           -4.4070    -6.0441    -0.2078 C.ar    
  33 N33           -3.4448    -6.4377     0.6152 N.ar    
  34 C34           -2.5420    -5.5827     1.0602 C.ar    
  35 C35           -2.6119    -4.2475     0.6512 C.ar    
  36 C36           -3.6416    -3.8731    -0.2169 C.ar    
  37 N37           -4.5065    -4.7875    -0.6178 N.ar    
  38 C38           -1.4524    -6.0395     1.9958 C.3     
  39 F39           -1.5312    -7.4264     2.1616 F       
  40 F40           -0.2051    -5.7043     1.4581 F       
  41 F41           -1.6094    -5.4119     3.2362 F       
  42 N42            1.2468    -3.1521     3.2463 N.3     
  43 C43            1.1227    -4.5863     3.5445 C.3     
  44 C44            2.2782    -5.0150     4.4528 C.3     
  45 O45            2.2699    -4.2130     5.6370 O.3     
  46 C46            2.3896    -2.8106     5.3834 C.3     
  47 C47            1.2353    -2.3596     4.4845 C.3     
  48 N48           -5.3290    -6.9715    -0.6552 N.pl3   
  49 H49            0.2847     1.4558     2.2259 H       
  50 H50            1.2020     1.0522     0.7398 H       
  51 H51           -0.5047     3.3734     1.2175 H       
  52 H52            1.6544     3.3219    -0.0815 H       
  53 H53            0.8405     2.3610    -1.3395 H       
  54 H54            2.6302     7.5439    -2.0419 H       
  55 H55            1.9753     9.8842    -2.4383 H       
  56 H56           -0.3133    10.4142    -3.1764 H       
  57 H57           -1.9467     8.6037    -3.5190 H       
  58 H58           -1.2893     6.2627    -3.1307 H       
  59 H59            2.7301     6.6826    -0.4075 H       
  60 H60            5.0389     6.6099     0.4452 H       
  61 H61            6.5623     4.8154    -0.2775 H       
  62 H62            5.7766     3.0932    -1.8523 H       
  63 H63            3.4652     3.1612    -2.6985 H       
  64 H64           -0.3088     5.4205    -4.7006 H       
  65 H65           -0.2537     3.8390    -5.5155 H       
  66 H66           -1.0488     3.9964    -3.9308 H       
  67 H67            3.2055     4.1082    -4.3202 H       
  68 H68            2.1419     3.9676    -5.7404 H       
  69 H69            2.2764     5.5197    -4.8794 H       
  70 H70            0.2827     2.2164    -3.0346 H       
  71 H71            1.2706     1.9824    -4.4966 H       
  72 H72            2.0564     2.3305    -2.9379 H       
  73 H73           -2.4775    -1.5980     0.0426 H       
  74 H74           -3.7285    -2.8512    -0.5553 H       
  75 H75            0.1747    -4.7724     4.0492 H       
  76 H76            1.1593    -5.1557     2.6158 H       
  77 H77            2.1588    -6.0642     4.7230 H       
  78 H78            3.2237    -4.8789     3.9278 H       
  79 H79            2.3509    -2.2656     6.3265 H       
  80 H80            3.3383    -2.6105     4.8854 H       
  81 H81            1.3541    -1.3036     4.2419 H       
  82 H82            0.2891    -2.5102     5.0042 H       
  83 H83           -5.2666    -7.8955    -0.3667 H       
  84 H84           -6.0385    -6.6983    -1.2576 H       
@<TRIPOS>BOND
   1    1    2 1
   2    1    5 1
   3    2    3 am
   4    2    6 2
   5    3    4 1
   6    3   30 1
   7    4    5 1
   8    4   49 1
   9    4   50 1
  10    5    7 1
  11    5   51 1
  12    7    8 1
  13    7   52 1
  14    7   53 1
  15    8    9 1
  16    9   10 1
  17    9   16 1
  18    9   22 1
  19   10   11 ar
  20   10   15 ar
  21   11   12 ar
  22   11   54 1
  23   12   13 ar
  24   12   55 1
  25   13   14 ar
  26   13   56 1
  27   14   15 ar
  28   14   57 1
  29   15   58 1
  30   16   17 ar
  31   16   21 ar
  32   17   18 ar
  33   17   59 1
  34   18   19 ar
  35   18   60 1
  36   19   20 ar
  37   19   61 1
  38   20   21 ar
  39   20   62 1
  40   21   63 1
  41   22   23 1
  42   22   25 1
  43   22   24 1
  44   23   64 1
  45   23   65 1
  46   23   66 1
  47   24   67 1
  48   24   68 1
  49   24   69 1
  50   25   70 1
  51   25   71 1
  52   25   72 1
  53   26   27 ar
  54   26   31 ar
  55   26   42 1
  56   27   28 ar
  57   28   29 ar
  58   28   35 1
  59   29   30 ar
  60   29   73 1
  61   30   31 ar
  62   32   33 ar
  63   32   37 ar
  64   32   48 1
  65   33   34 ar
  66   34   35 ar
  67   34   38 1
  68   35   36 ar
  69   36   37 ar
  70   36   74 1
  71   38   39 1
  72   38   40 1
  73   38   41 1
  74   42   43 1
  75   42   47 1
  76   43   44 1
  77   43   75 1
  78   43   76 1
  79   44   45 1
  80   44   77 1
  81   44   78 1
  82   45   46 1
  83   46   47 1
  84   46   79 1
  85   46   80 1
  86   47   81 1
  87   47   82 1
  88   48   83 1
  89   48   84 1

#	End of record

