#	Name: ASD01885885
#	Creating user name:	WinNT
#	Creation time:	15. 06. 2019 19:50

#	Modifying user name:	WinNT
#	Modification time:	15. 06. 2019 19:50

#	Program:	/corina/corina34_cracker 3.40 0067  02.08.2006

@<TRIPOS>MOLECULE
ASD01885885
  51   54    0    0    0
SMALL
NO_CHARGES


@<TRIPOS>ATOM
   1 C1            -0.0170     1.4036     0.0098 C.ar    
   2 C2             1.2136     2.1078     0.0018 C.ar    
   3 C3             1.1957     3.5260     0.0097 C.ar    
   4 C4            -0.0399     4.1602     0.0249 C.ar    
   5 C5            -1.2088     3.3917     0.0319 C.ar    
   6 N6            -1.1706     2.0723     0.0299 N.ar    
   7 C7             0.0021    -0.0041     0.0020 C.ar    
   8 C8             1.1926    -0.6630    -0.0129 C.ar    
   9 C9             2.3991     0.0334    -0.0208 C.ar    
  10 C10            2.4198     1.3962    -0.0132 C.ar    
  11 C11            1.2060    -2.1699    -0.0206 C.3     
  12 C12            2.4534     4.3052     0.0024 C.ar    
  13 C13            1.1965    -2.6726    -1.4657 C.3     
  14 C14            1.2100    -4.1795    -1.4734 C.ar    
  15 C15            2.7896     5.1015     1.0979 C.ar    
  16 C16            3.9619     5.8261     1.0878 C.ar    
  17 C17            4.8097     5.7658    -0.0111 C.ar    
  18 C18            4.4805     4.9757    -1.1044 C.ar    
  19 C19            3.3114     4.2414    -1.0998 C.ar    
  20 C20            0.0193    -4.8900    -1.4653 C.ar    
  21 C21            0.0752    -6.2742    -1.4728 C.ar    
  22 C22            1.3203    -6.9014    -1.4880 C.ar    
  23 N23            2.4375    -6.1831    -1.4949 N.ar    
  24 C24            2.4118    -4.8677    -1.4943 C.ar    
  25 C25           -2.5239     4.0765     0.0481 C.2     
  26 N26           -3.6607     3.3525     0.0551 N.am    
  27 O27           -2.5767     5.2904     0.0552 O.2     
  28 F28            2.9911     3.4721    -2.1633 F       
  29 C29            1.3952    -8.3314    -1.4959 C.1     
  30 N30            1.4546    -9.4658    -1.5021 N.1     
  31 O31            5.9636     6.4821    -0.0163 O.3     
  32 C32            6.7889     6.3743    -1.1778 C.3     
  33 H33           -0.0978     5.2386     0.0317 H       
  34 H34           -0.9245    -0.5588     0.0083 H       
  35 H35            3.3302    -0.5137    -0.0327 H       
  36 H36            3.3616     1.9247    -0.0198 H       
  37 H37            2.1042    -2.5278     0.4826 H       
  38 H38            0.3244    -2.5438     0.5000 H       
  39 H39            0.2983    -2.3147    -1.9689 H       
  40 H40            2.0781    -2.2987    -1.9863 H       
  41 H41            2.1315     5.1502     1.9529 H       
  42 H42            4.2219     6.4423     1.9358 H       
  43 H43            5.1418     4.9320    -1.9571 H       
  44 H44           -0.9304    -4.3759    -1.4531 H       
  45 H45           -0.8326    -6.8591    -1.4665 H       
  46 H46            3.3408    -4.3170    -1.5000 H       
  47 H47           -3.6186     2.3835     0.0494 H       
  48 H48           -4.5210     3.8005     0.0657 H       
  49 H49            7.6763     6.9948    -1.0519 H       
  50 H50            7.0886     5.3354    -1.3155 H       
  51 H51            6.2316     6.7106    -2.0521 H       
@<TRIPOS>BOND
   1    1    7 ar
   2    1    2 ar
   3    1    6 ar
   4    2    3 ar
   5    2   10 ar
   6    3    4 ar
   7    3   12 1
   8    4    5 ar
   9    4   33 1
  10    5    6 ar
  11    5   25 1
  12    7    8 ar
  13    7   34 1
  14    8   11 1
  15    8    9 ar
  16    9   10 ar
  17    9   35 1
  18   10   36 1
  19   11   13 1
  20   11   37 1
  21   11   38 1
  22   12   15 ar
  23   12   19 ar
  24   13   14 1
  25   13   39 1
  26   13   40 1
  27   14   20 ar
  28   14   24 ar
  29   15   16 ar
  30   15   41 1
  31   16   17 ar
  32   16   42 1
  33   17   31 1
  34   17   18 ar
  35   18   19 ar
  36   18   43 1
  37   19   28 1
  38   20   21 ar
  39   20   44 1
  40   21   22 ar
  41   21   45 1
  42   22   29 1
  43   22   23 ar
  44   23   24 ar
  45   24   46 1
  46   25   26 am
  47   25   27 2
  48   26   47 1
  49   26   48 1
  50   29   30 3
  51   31   32 1
  52   32   49 1
  53   32   50 1
  54   32   51 1

#	End of record

