#	Name: ASD01150780
#	Creating user name:	WinNT
#	Creation time:	15. 06. 2019 19:05

#	Modifying user name:	WinNT
#	Modification time:	15. 06. 2019 19:05

#	Program:	/corina/corina34_cracker 3.40 0067  02.08.2006

@<TRIPOS>MOLECULE
ASD01150780
  56   59    0    0    0
SMALL
NO_CHARGES


@<TRIPOS>ATOM
   1 C1            -0.0034     1.4275     0.0439 C.2     
   2 C2            -0.5036     1.0184    -1.3175 C.3     
   3 F3            -1.6221     0.1905    -1.1739 F       
   4 F4            -0.8580     2.1589    -2.0462 F       
   5 F5             0.5050     0.3261    -1.9963 F       
   6 N6             3.5644     2.3089     0.4770 N.ar    
   7 C7             2.4628     1.6142     0.3658 C.ar    
   8 C8             1.2157     2.2341     0.1654 C.ar    
   9 C9             1.1525     3.6368     0.0827 C.ar    
  10 C10            2.3650     4.3592     0.2073 C.ar    
  11 C11            2.3842     5.7579     0.1363 C.ar    
  12 C12            3.5836     6.4279     0.2624 C.ar    
  13 C13            4.7740     5.7200     0.4595 C.ar    
  14 C14            4.7769     4.3613     0.5313 C.ar    
  15 C15            3.5734     3.6472     0.4074 C.ar    
  16 C16            2.5302     0.1112     0.4538 C.3     
  17 C17           -0.1339     4.3329    -0.1274 C.ar    
  18 C18           -1.1322     4.2713     0.8473 C.ar    
  19 C19           -2.3304     4.9238     0.6449 C.ar    
  20 C20           -2.5447     5.6380    -0.5209 C.ar    
  21 C21           -1.5600     5.7029    -1.4911 C.ar    
  22 C22           -0.3547     5.0603    -1.2990 C.ar    
  23 S23           -4.0786     6.4680    -0.7715 S.o2    
  24 O24           -4.2123     6.5384    -2.1844 O.2     
  25 O25           -5.0064     5.7351     0.0167 O.2     
  26 C26           -3.8175     8.1220    -0.0737 C.3     
  27 N27            3.6096     7.8222     0.1925 N.3     
  28 C28            4.9779     8.3317     0.3498 C.3     
  29 C29            4.9893     9.8451     0.1234 C.3     
  30 C30            4.0559    10.5148     1.1357 C.3     
  31 C31            2.6482     9.9319     0.9835 C.3     
  32 C32            2.7046     8.4159     1.1850 C.3     
  33 F33            6.2895    10.3330     0.2931 F       
  34 F34            4.5498    10.1266    -1.1746 F       
  35 O35           -0.6117     1.0940     1.0391 O.2     
  36 H36            1.4672     6.3076    -0.0165 H       
  37 H37            5.7044     6.2599     0.5556 H       
  38 H38            5.7055     3.8311     0.6835 H       
  39 H39            2.4888    -0.1937     1.4994 H       
  40 H40            1.6877    -0.3224    -0.0848 H       
  41 H41            3.4630    -0.2372     0.0104 H       
  42 H42           -0.9666     3.7137     1.7573 H       
  43 H43           -3.1033     4.8770     1.3977 H       
  44 H44           -1.7341     6.2614    -2.3989 H       
  45 H45            0.4146     5.1154    -2.0550 H       
  46 H46           -2.9985     8.6130    -0.5993 H       
  47 H47           -4.7271     8.7117    -0.1866 H       
  48 H48           -3.5699     8.0350     0.9843 H       
  49 H49            5.3335     8.1123     1.3566 H       
  50 H50            5.6305     7.8505    -0.3786 H       
  51 H51            4.4201    10.3283     2.1460 H       
  52 H52            4.0275    11.5885     0.9502 H       
  53 H53            1.9885    10.3739     1.7301 H       
  54 H54            2.2689    10.1525    -0.0143 H       
  55 H55            1.7062     7.9959     1.0631 H       
  56 H56            3.0709     8.1962     2.1878 H       
@<TRIPOS>BOND
   1    1    2 1
   2    1    8 1
   3    1   35 2
   4    2    3 1
   5    2    4 1
   6    2    5 1
   7    6    7 ar
   8    6   15 ar
   9    7    8 ar
  10    7   16 1
  11    8    9 ar
  12    9   10 ar
  13    9   17 1
  14   10   11 ar
  15   10   15 ar
  16   11   12 ar
  17   11   36 1
  18   12   13 ar
  19   12   27 1
  20   13   14 ar
  21   13   37 1
  22   14   15 ar
  23   14   38 1
  24   16   39 1
  25   16   40 1
  26   16   41 1
  27   17   18 ar
  28   17   22 ar
  29   18   19 ar
  30   18   42 1
  31   19   20 ar
  32   19   43 1
  33   20   21 ar
  34   20   23 1
  35   21   22 ar
  36   21   44 1
  37   22   45 1
  38   23   24 2
  39   23   25 2
  40   23   26 1
  41   26   46 1
  42   26   47 1
  43   26   48 1
  44   27   28 1
  45   27   32 1
  46   28   29 1
  47   28   49 1
  48   28   50 1
  49   29   30 1
  50   29   33 1
  51   29   34 1
  52   30   31 1
  53   30   51 1
  54   30   52 1
  55   31   32 1
  56   31   53 1
  57   31   54 1
  58   32   55 1
  59   32   56 1

#	End of record

