#	Name: ASD08151089
#	Creating user name:	WinNT
#	Creation time:	15. 06. 2019 21:17

#	Modifying user name:	WinNT
#	Modification time:	15. 06. 2019 21:17

#	Program:	/corina/corina34_cracker 3.40 0067  02.08.2006

@<TRIPOS>MOLECULE
ASD08151089
  47   48    0    0    0
SMALL
NO_CHARGES


@<TRIPOS>ATOM
   1 C1            -0.0187     1.5258     0.0104 C.3     
   2 C2             0.0021    -0.0041     0.0020 C.3     
   3 C3             2.0927     2.1819     1.1971 C.ar    
   4 C4             1.3951     2.0474    -0.0003 C.ar    
   5 C5             1.9923     2.3892    -1.1980 C.ar    
   6 C6             3.2901     2.8688    -1.2255 C.ar    
   7 C7             4.0109     3.0124    -0.0386 C.ar    
   8 C8             3.4108     2.6673     1.1862 C.ar    
   9 C9             1.4447     1.8193     2.4797 C.ar    
  10 C10            1.9346     0.7544     3.2345 C.ar    
  11 C11            1.3263     0.4215     4.4299 C.ar    
  12 C12            0.2316     1.1441     4.8770 C.ar    
  13 C13           -0.2573     2.2006     4.1308 C.ar    
  14 C14            0.3466     2.5455     2.9385 C.ar    
  15 F15            3.8613     3.1987    -2.4045 F       
  16 F16            1.7990    -0.6099     5.1633 F       
  17 C17            5.3541     3.5079    -0.0676 C.1     
  18 C18            6.4554     3.9141    -0.0914 C.1     
  19 N19            4.1045     2.8036     2.3559 N.2     
  20 N20            5.3147     3.2499     2.3398 N.2     
  21 N21            6.0258     3.3897     3.5388 N.pl3   
  22 C22            5.3950     3.0290     4.8109 C.3     
  23 C23            5.7737     1.5930     5.1789 C.3     
  24 C24            7.4002     3.8965     3.5205 C.3     
  25 C25            7.3909     5.4051     3.7754 C.3     
  26 O26           -0.7098     1.9991    -1.1473 O.3     
  27 H27           -0.5289     1.8773     0.9072 H       
  28 H28            0.5293    -0.3651     0.8851 H       
  29 H29           -1.0205    -0.3814     0.0098 H       
  30 H30            0.5123    -0.3556    -0.8948 H       
  31 H31            1.4418     2.2808    -2.1209 H       
  32 H32            2.7873     0.1908     2.8857 H       
  33 H33           -0.2416     0.8810     5.8115 H       
  34 H34           -1.1110     2.7601     4.4839 H       
  35 H35           -0.0338     3.3740     2.3595 H       
  36 H36            7.4403     4.2774    -0.1128 H       
  37 H37            5.7388     3.7069     5.5921 H       
  38 H38            4.3120     3.1056     4.7140 H       
  39 H39            5.4299     0.9150     4.3977 H       
  40 H40            6.8566     1.5163     5.2757 H       
  41 H41            5.3043     1.3246     6.1253 H       
  42 H42            7.9809     3.4002     4.2982 H       
  43 H43            7.8488     3.6951     2.5478 H       
  44 H44            6.8103     5.9014     2.9978 H       
  45 H45            6.9423     5.6065     4.7482 H       
  46 H46            8.4135     5.7822     3.7618 H       
  47 H47           -1.6280     1.7017    -1.2062 H       
@<TRIPOS>BOND
   1    1    2 1
   2    1    4 1
   3    1   26 1
   4    1   27 1
   5    2   28 1
   6    2   29 1
   7    2   30 1
   8    3    4 ar
   9    3    8 ar
  10    3    9 1
  11    4    5 ar
  12    5    6 ar
  13    5   31 1
  14    6    7 ar
  15    6   15 1
  16    7    8 ar
  17    7   17 1
  18    8   19 1
  19    9   10 ar
  20    9   14 ar
  21   10   11 ar
  22   10   32 1
  23   11   12 ar
  24   11   16 1
  25   12   13 ar
  26   12   33 1
  27   13   14 ar
  28   13   34 1
  29   14   35 1
  30   17   18 3
  31   18   36 1
  32   19   20 2
  33   20   21 1
  34   21   22 1
  35   21   24 1
  36   22   23 1
  37   22   37 1
  38   22   38 1
  39   23   39 1
  40   23   40 1
  41   23   41 1
  42   24   25 1
  43   24   42 1
  44   24   43 1
  45   25   44 1
  46   25   45 1
  47   25   46 1
  48   26   47 1

#	End of record

