#	Name: ASD04880721
#	Creating user name:	WinNT
#	Creation time:	15. 06. 2019 20:53

#	Modifying user name:	WinNT
#	Modification time:	15. 06. 2019 20:53

#	Program:	/corina/corina34_cracker 3.40 0067  02.08.2006

@<TRIPOS>MOLECULE
ASD04880721
  81   85    0    0    0
SMALL
NO_CHARGES


@<TRIPOS>ATOM
   1 C1            -1.0326     1.4748     3.1174 C.ar    
   2 C2            -1.0755     0.0943     3.1335 C.ar    
   3 C3            -0.3703    -0.6318     2.1916 C.ar    
   4 C4             0.3801     0.0210     1.2305 C.ar    
   5 C5             0.4269     1.4008     1.2084 C.ar    
   6 C6            -0.2804     2.1335     2.1534 C.ar    
   7 N7            -0.2352     3.5294     2.1340 N.3     
   8 C8            -0.8390     4.0588     0.9032 C.3     
   9 C9            -0.8418     5.5884     0.9565 C.3     
  10 N10            0.5366     6.0729     1.1141 N.3     
  11 C11            1.1404     5.5435     2.3449 C.3     
  12 C12            1.1432     4.0139     2.2916 C.3     
  13 C13            0.5817     7.4644     1.0947 C.ar    
  14 C14            0.9386     8.1612     2.2407 C.ar    
  15 C15            0.9846     9.5442     2.2259 C.ar    
  16 C16            0.6703    10.2420     1.0499 C.ar    
  17 C17            0.3113     9.5355    -0.1035 C.ar    
  18 C18            0.2726     8.1560    -0.0814 C.ar    
  19 C19           -1.8061     2.2655     4.1410 C.3     
  20 N20           -0.0823     7.4467    -1.2381 N.am    
  21 C21           -0.8802     8.0190    -2.1613 C.2     
  22 C22           -1.3265     7.2463    -3.3249 C.2     
  23 C23           -2.1319     7.7014    -4.3293 C.2     
  24 C24           -2.2999     6.6350    -5.2265 C.2     
  25 C25           -1.5985     5.5890    -4.7366 C.2     
  26 O26           -1.0087     5.9630    -3.5937 O.3     
  27 O27           -1.2303     9.1772    -2.0291 O.2     
  28 C28            0.7174    11.7133     1.0296 C.2     
  29 O29            1.3329    10.2247     3.3473 O.3     
  30 C30            1.6395     9.4492     4.5078 C.3     
  31 O31            1.0293    12.3257     2.0332 O.2     
  32 N32            0.4151    12.3817    -0.1011 N.am    
  33 C33            0.4620    13.8458    -0.1213 C.3     
  34 C34            0.0780    14.3492    -1.5141 C.3     
  35 C35            0.1271    15.8782    -1.5352 C.3     
  36 N36           -0.2406    16.3603    -2.8689 N.am    
  37 C37           -1.6119    16.6747    -3.2868 C.3     
  38 C38           -1.5742    16.7107    -4.8308 C.3     
  39 C39           -0.0918    17.0572    -5.1019 C.3     
  40 C40            0.6353    16.5769    -3.8652 C.2     
  41 O41            1.8338    16.4092    -3.7852 O.2     
  42 C42            2.0067    10.3829     5.6628 C.3     
  43 H43           -1.6602    -0.4185     3.8829 H       
  44 H44           -0.4052    -1.7111     2.2066 H       
  45 H45            0.9303    -0.5492     0.4966 H       
  46 H46            1.0134     1.9099     0.4578 H       
  47 H47           -0.2600     3.7260     0.0418 H       
  48 H48           -1.8632     3.6961     0.8154 H       
  49 H49           -1.2628     5.9837     0.0321 H       
  50 H50           -1.4433     5.9217     1.8022 H       
  51 H51            2.1646     5.9062     2.4326 H       
  52 H52            0.5614     5.8763     3.2063 H       
  53 H53            1.5642     3.6186     3.2160 H       
  54 H54            1.7447     3.6806     1.4459 H       
  55 H55            1.1804     7.6234     3.1455 H       
  56 H56            0.0682    10.0688    -1.0107 H       
  57 H57           -1.2118     2.3635     5.0494 H       
  58 H58           -2.0279     3.2558     3.7433 H       
  59 H59           -2.7382     1.7491     4.3705 H       
  60 H60            0.2465     6.5442    -1.3737 H       
  61 H61           -2.5576     8.6902    -4.4164 H       
  62 H62           -2.8807     6.6479    -6.1369 H       
  63 H63           -1.5226     4.6134    -5.1936 H       
  64 H64            0.7711     8.8519     4.7855 H       
  65 H65            2.4802     8.7897     4.2924 H       
  66 H66            0.1664    11.8933    -0.9014 H       
  67 H67           -0.2383    14.2419     0.6141 H       
  68 H68            1.4708    14.1803     0.1207 H       
  69 H69            0.7783    13.9530    -2.2495 H       
  70 H70           -0.9308    14.0146    -1.7560 H       
  71 H71           -0.5732    16.2744    -0.7999 H       
  72 H72            1.1358    16.2128    -1.2933 H       
  73 H73           -2.2977    15.8998    -2.9443 H       
  74 H74           -1.9126    17.6460    -2.8941 H       
  75 H75           -1.8303    15.7377    -5.2500 H       
  76 H76           -2.2335    17.4870    -5.2191 H       
  77 H77            0.2671    16.5318    -5.9870 H       
  78 H78            0.0331    18.1336    -5.2192 H       
  79 H79            2.8752    10.9802     5.3851 H       
  80 H80            1.1660    11.0424     5.8782 H       
  81 H81            2.2406     9.7914     6.5480 H       
@<TRIPOS>BOND
   1    1    2 ar
   2    1    6 ar
   3    1   19 1
   4    2    3 ar
   5    2   43 1
   6    3    4 ar
   7    3   44 1
   8    4    5 ar
   9    4   45 1
  10    5    6 ar
  11    5   46 1
  12    6    7 1
  13    7    8 1
  14    7   12 1
  15    8    9 1
  16    8   47 1
  17    8   48 1
  18    9   10 1
  19    9   49 1
  20    9   50 1
  21   10   11 1
  22   10   13 1
  23   11   12 1
  24   11   51 1
  25   11   52 1
  26   12   53 1
  27   12   54 1
  28   13   14 ar
  29   13   18 ar
  30   14   15 ar
  31   14   55 1
  32   15   16 ar
  33   15   29 1
  34   16   17 ar
  35   16   28 1
  36   17   18 ar
  37   17   56 1
  38   18   20 1
  39   19   57 1
  40   19   58 1
  41   19   59 1
  42   20   21 am
  43   20   60 1
  44   21   22 1
  45   21   27 2
  46   22   23 2
  47   22   26 1
  48   23   24 1
  49   23   61 1
  50   24   25 2
  51   24   62 1
  52   25   26 1
  53   25   63 1
  54   28   31 2
  55   28   32 am
  56   29   30 1
  57   30   42 1
  58   30   64 1
  59   30   65 1
  60   32   33 1
  61   32   66 1
  62   33   34 1
  63   33   67 1
  64   33   68 1
  65   34   35 1
  66   34   69 1
  67   34   70 1
  68   35   36 1
  69   35   71 1
  70   35   72 1
  71   36   37 1
  72   36   40 am
  73   37   38 1
  74   37   73 1
  75   37   74 1
  76   38   39 1
  77   38   75 1
  78   38   76 1
  79   39   40 1
  80   39   77 1
  81   39   78 1
  82   40   41 2
  83   42   79 1
  84   42   80 1
  85   42   81 1

#	End of record

