#	Name: ASD00170727
#	Creating user name:	WinNT
#	Creation time:	15. 06. 2019 18:32

#	Modifying user name:	WinNT
#	Modification time:	15. 06. 2019 18:32

#	Program:	/corina/corina34_cracker 3.40 0067  02.08.2006

@<TRIPOS>MOLECULE
ASD00170727
  37   40    0    0    0
SMALL
NO_CHARGES


@<TRIPOS>ATOM
   1 C1            -0.0167     1.2126    -0.0090 C.2     
   2 O2             0.5079     0.8129     1.0148 O.2     
   3 C3             0.6312     0.9683    -1.3164 C.ar    
   4 C4             1.8933     0.3751    -1.3732 C.ar    
   5 C5             2.4920     0.1500    -2.5955 C.ar    
   6 C6             1.8442     0.5115    -3.7635 C.ar    
   7 C7             0.5930     1.1000    -3.7142 C.ar    
   8 C8            -0.0194     1.3248    -2.4985 C.ar    
   9 C9            -3.5708     2.1166     0.0552 C.2     
  10 C10           -2.5586     1.2414    -0.0258 C.2     
  11 C11           -1.2519     1.9072     0.0516 C.2     
  12 C12           -1.3465     3.2647     0.1885 C.2     
  13 S13           -2.9726     3.7624     0.2266 S.3     
  14 C14           -4.8764     1.3447    -0.0275 C.3     
  15 C15           -4.4858    -0.1034    -0.1681 C.ar    
  16 C16           -5.2165    -1.2657    -0.2856 C.ar    
  17 C17           -4.5641    -2.4813    -0.4014 C.ar    
  18 C18           -3.1814    -2.5319    -0.3989 C.ar    
  19 C19           -2.4428    -1.3722    -0.2811 C.ar    
  20 C20           -3.0961    -0.1441    -0.1704 C.ar    
  21 C21           -2.4791    -3.8593    -0.5248 C.3     
  22 F22           -3.4287    -4.8813    -0.6298 F       
  23 F23           -1.6721    -3.8533    -1.6676 F       
  24 F24           -1.6844    -4.0755     0.6061 F       
  25 N25           -0.2661     4.1173     0.2839 N.pl3   
  26 H26            2.4002     0.0931    -0.4622 H       
  27 H27            3.4685    -0.3090    -2.6408 H       
  28 H28            2.3175     0.3338    -4.7179 H       
  29 H29            0.0926     1.3798    -4.6295 H       
  30 H30           -0.9982     1.7798    -2.4615 H       
  31 H31           -5.4584     1.4909     0.8825 H       
  32 H32           -5.4493     1.6662    -0.8972 H       
  33 H33           -6.2959    -1.2286    -0.2871 H       
  34 H34           -5.1362    -3.3927    -0.4935 H       
  35 H35           -1.3637    -1.4146    -0.2786 H       
  36 H36            0.6331     3.7571     0.3343 H       
  37 H37           -0.4056     5.0771     0.3005 H       
@<TRIPOS>BOND
   1    1    2 2
   2    1    3 1
   3    1   11 1
   4    3    4 ar
   5    3    8 ar
   6    4    5 ar
   7    4   26 1
   8    5    6 ar
   9    5   27 1
  10    6    7 ar
  11    6   28 1
  12    7    8 ar
  13    7   29 1
  14    8   30 1
  15    9   10 2
  16    9   13 1
  17    9   14 1
  18   10   11 1
  19   10   20 1
  20   11   12 2
  21   12   13 1
  22   12   25 1
  23   14   15 1
  24   14   31 1
  25   14   32 1
  26   15   16 ar
  27   15   20 ar
  28   16   17 ar
  29   16   33 1
  30   17   18 ar
  31   17   34 1
  32   18   19 ar
  33   18   21 1
  34   19   20 ar
  35   19   35 1
  36   21   22 1
  37   21   23 1
  38   21   24 1
  39   25   36 1
  40   25   37 1

#	End of record

