#	Name: ASD01440091
#	Creating user name:	WinNT
#	Creation time:	15. 06. 2019 19:21

#	Modifying user name:	WinNT
#	Modification time:	15. 06. 2019 19:21

#	Program:	/corina/corina34_cracker 3.40 0067  02.08.2006

@<TRIPOS>MOLECULE
ASD01440091
  98  103    0    0    0
SMALL
NO_CHARGES


@<TRIPOS>ATOM
   1 N1             0.0097     1.3384    -0.0064 N.ar    
   2 C2             0.0199     0.0159    -0.0131 C.ar    
   3 C3             1.2206    -0.6826    -0.0231 C.ar    
   4 C4             2.4105     0.0238    -0.0261 C.ar    
   5 C5             2.3569     1.4111    -0.0189 C.ar    
   6 C6             1.1278     2.0394    -0.0090 C.ar    
   7 C7             1.2273    -2.1896    -0.0301 C.3     
   8 C8             0.4966    -2.7292     1.1810 C.2     
   9 C9             0.4322    -2.7176    -1.2025 C.ar    
  10 N10            2.6016    -2.6956    -0.0684 N.am    
  11 C11           -0.6132    -3.4613    -0.6622 C.ar    
  12 C12            0.5761    -2.5848    -2.5608 C.ar    
  13 C13           -0.3382    -3.2035    -3.4204 C.ar    
  14 C14           -1.3898    -3.9515    -2.8840 C.ar    
  15 C15           -1.5251    -4.0774    -1.5211 C.ar    
  16 C16           -0.1976    -3.0709    -4.8393 C.1     
  17 N17           -0.5449    -3.4466     0.7281 N.am    
  18 C18           -2.9304    -3.0911     2.0538 C.ar    
  19 C19           -2.6731    -1.9362     2.7785 C.ar    
  20 C20           -4.2079    -3.3500     1.5948 C.ar    
  21 C21           -5.2318    -2.4599     1.8557 C.ar    
  22 C22           -4.9795    -1.3032     2.5802 C.ar    
  23 C23           -3.6991    -1.0415     3.0421 C.ar    
  24 O24           -5.9872    -0.4283     2.8369 O.3     
  25 O25           -1.4167    -1.6823     3.2300 O.3     
  26 O26            0.7959    -2.5483     2.3423 O.2     
  27 C27            3.4659    -2.3736     0.9144 C.2     
  28 O28            3.1308    -1.5977     1.7885 O.2     
  29 N29            4.7014    -2.9118     0.9283 N.am    
  30 C30            5.0823    -3.9374    -0.0524 C.3     
  31 C31            5.6240    -5.1589     0.6967 C.3     
  32 C32            6.7613    -4.7215     1.6226 C.3     
  33 C33            6.2281    -3.7215     2.6511 C.3     
  34 C34            5.6951    -2.4796     1.9206 C.3     
  35 C35            7.3279    -5.9443     2.3468 C.3     
  36 C36            7.8634    -6.9451     1.3191 C.3     
  37 C37            8.4834    -8.1377     2.0508 C.3     
  38 N38            9.5721    -7.6695     2.9179 N.3     
  39 C39            9.0737    -6.7436     3.9429 C.3     
  40 C40            8.4713    -5.5093     3.2678 C.3     
  41 C41           10.2809    -8.8010     3.5305 C.3     
  42 O42           -1.1536    -0.6650    -0.0096 O.3     
  43 C43           -2.3537     0.1106     0.0012 C.3     
  44 C44           -3.5651    -0.8241     0.0036 C.3     
  45 N45           -0.0861    -2.9658    -5.9649 N.1     
  46 C46           -1.2246    -0.4745     3.9691 C.3     
  47 C47           -7.2811    -0.7623     2.3309 C.3     
  48 C48           11.4811    -8.2814     4.3245 C.3     
  49 C49            9.3326    -9.5484     4.4703 C.3     
  50 S50           -1.6256    -4.2249     1.7122 S.o2    
  51 O51           -2.1951    -5.2699     0.9357 O.2     
  52 O52           -0.9559    -4.4493     2.9453 O.2     
  53 H53            3.3592    -0.4922    -0.0335 H       
  54 H54            3.2671     1.9924    -0.0206 H       
  55 H55            1.0805     3.1184    -0.0038 H       
  56 H56            2.8896    -3.2623    -0.8011 H       
  57 H57            1.3921    -2.0042    -2.9649 H       
  58 H58           -2.0990    -4.4317    -3.5419 H       
  59 H59           -2.3403    -4.6567    -1.1133 H       
  60 H60           -4.4062    -4.2495     1.0309 H       
  61 H61           -6.2292    -2.6641     1.4953 H       
  62 H62           -3.5009    -0.1422     3.6063 H       
  63 H63            4.2091    -4.2253    -0.6378 H       
  64 H64            5.8538    -3.5423    -0.7134 H       
  65 H65            4.8253    -5.6067     1.2880 H       
  66 H66            5.9992    -5.8887    -0.0207 H       
  67 H67            7.5488    -4.2514     1.0335 H       
  68 H68            5.4237    -4.1828     3.2240 H       
  69 H69            7.0333    -3.4282     3.3247 H       
  70 H70            6.5181    -1.9674     1.4222 H       
  71 H71            5.2246    -1.8074     2.6382 H       
  72 H72            6.5418    -6.4144     2.9377 H       
  73 H73            7.0452    -7.2910     0.6875 H       
  74 H74            8.6214    -6.4627     0.7020 H       
  75 H75            7.7216    -8.6280     2.6569 H       
  76 H76            8.8784    -8.8455     1.3220 H       
  77 H77            8.3091    -7.2403     4.5402 H       
  78 H78            9.8974    -6.4388     4.5884 H       
  79 H79            9.2388    -5.0043     2.6813 H       
  80 H80            8.0874    -4.8294     4.0283 H       
  81 H81           10.6273    -9.4783     2.7499 H       
  82 H82           -2.3748     0.7349     0.8945 H       
  83 H83           -2.3852     0.7438    -0.8854 H       
  84 H84           -4.4805    -0.2324     0.0119 H       
  85 H85           -3.5440    -1.4484    -0.8896 H       
  86 H86           -3.5336    -1.4572     0.8903 H       
  87 H87           -0.1799    -0.3945     4.2694 H       
  88 H88           -1.4898     0.3792     3.3454 H       
  89 H89           -1.8577    -0.4869     4.8563 H       
  90 H90           -7.2360    -0.8466     1.2451 H       
  91 H91           -7.6032    -1.7129     2.7560 H       
  92 H92           -7.9912     0.0177     2.6055 H       
  93 H93           11.1347    -7.6041     5.1051 H       
  94 H94           12.0070    -9.1210     4.7791 H       
  95 H95           12.1567    -7.7490     3.6550 H       
  96 H96            8.4775    -9.9185     3.9046 H       
  97 H97            9.8585   -10.3879     4.9248 H       
  98 H98            8.9862    -8.8710     5.2509 H       
@<TRIPOS>BOND
   1    1    2 ar
   2    1    6 ar
   3    2    3 ar
   4    2   42 1
   5    3    4 ar
   6    3    7 1
   7    4    5 ar
   8    4   53 1
   9    5    6 ar
  10    5   54 1
  11    6   55 1
  12    7    8 1
  13    7    9 1
  14    7   10 1
  15    8   17 am
  16    8   26 2
  17    9   11 ar
  18    9   12 ar
  19   10   27 am
  20   10   56 1
  21   11   17 1
  22   11   15 ar
  23   12   13 ar
  24   12   57 1
  25   13   14 ar
  26   13   16 1
  27   14   15 ar
  28   14   58 1
  29   15   59 1
  30   16   45 3
  31   17   50 am
  32   18   19 ar
  33   18   20 ar
  34   18   50 1
  35   19   25 1
  36   19   23 ar
  37   20   21 ar
  38   20   60 1
  39   21   22 ar
  40   21   61 1
  41   22   23 ar
  42   22   24 1
  43   23   62 1
  44   24   47 1
  45   25   46 1
  46   27   28 2
  47   27   29 am
  48   29   30 1
  49   29   34 1
  50   30   31 1
  51   30   63 1
  52   30   64 1
  53   31   32 1
  54   31   65 1
  55   31   66 1
  56   32   33 1
  57   32   35 1
  58   32   67 1
  59   33   34 1
  60   33   68 1
  61   33   69 1
  62   34   70 1
  63   34   71 1
  64   35   36 1
  65   35   40 1
  66   35   72 1
  67   36   37 1
  68   36   73 1
  69   36   74 1
  70   37   38 1
  71   37   75 1
  72   37   76 1
  73   38   39 1
  74   38   41 1
  75   39   40 1
  76   39   77 1
  77   39   78 1
  78   40   79 1
  79   40   80 1
  80   41   48 1
  81   41   49 1
  82   41   81 1
  83   42   43 1
  84   43   44 1
  85   43   82 1
  86   43   83 1
  87   44   84 1
  88   44   85 1
  89   44   86 1
  90   46   87 1
  91   46   88 1
  92   46   89 1
  93   47   90 1
  94   47   91 1
  95   47   92 1
  96   48   93 1
  97   48   94 1
  98   48   95 1
  99   49   96 1
 100   49   97 1
 101   49   98 1
 102   50   51 2
 103   50   52 2

#	End of record

