#	Name: ASD08830242
#	Creating user name:	WinNT
#	Creation time:	15. 06. 2019 21:20

#	Modifying user name:	WinNT
#	Modification time:	15. 06. 2019 21:20

#	Program:	/corina/corina34_cracker 3.40 0067  02.08.2006

@<TRIPOS>MOLECULE
ASD08830242
  40   42    0    0    0
SMALL
NO_CHARGES


@<TRIPOS>ATOM
   1 C1            -0.0179     1.4664     0.0101 C.ar    
   2 C2             0.0021    -0.0041     0.0020 C.2     
   3 C3            -1.2926    -0.7753     0.0102 C.3     
   4 O4             1.0604    -0.5961    -0.0113 O.2     
   5 C5            -1.2501     2.1494     0.0314 C.ar    
   6 C6             1.1775     2.1721     0.0025 C.ar    
   7 C7             1.1498     3.5742     0.0108 C.ar    
   8 C8            -0.0981     4.2488     0.0267 C.ar    
   9 C9            -1.2933     3.5050     0.0397 C.ar    
  10 C10            2.3394     4.3245     0.0039 C.ar    
  11 C11            2.2782     5.6844     0.0127 C.ar    
  12 C12            1.0525     6.3463     0.0288 C.ar    
  13 C13           -0.1197     5.6527     0.0354 C.ar    
  14 C14           -0.9927    -2.2755    -0.0007 C.3     
  15 N15           -2.2547    -3.0273     0.0073 N.3     
  16 C16           -2.0189    -4.4515    -0.2400 C.3     
  17 C17           -3.3263    -5.1299    -0.6633 C.3     
  18 S18           -4.5208    -4.9830     0.7006 S.o     
  19 C19           -4.4645    -3.2006     1.0588 C.3     
  20 C20           -3.0005    -2.7878     1.2450 C.3     
  21 O21           -5.8171    -5.3318     0.2345 O.2     
  22 H22           -1.8592    -0.5245     0.9070 H       
  23 H23           -1.8762    -0.5150    -0.8728 H       
  24 H24           -2.1718     1.5865     0.0409 H       
  25 H25            2.1206     1.6460    -0.0094 H       
  26 H26           -2.2455     4.0144     0.0515 H       
  27 H27            3.2965     3.8243    -0.0078 H       
  28 H28            3.1930     6.2583     0.0075 H       
  29 H29            1.0314     7.4261     0.0359 H       
  30 H30           -1.0619     6.1804     0.0479 H       
  31 H31           -0.4261    -2.5263    -0.8975 H       
  32 H32           -0.4091    -2.5358     0.8824 H       
  33 H33           -1.2794    -4.5638    -1.0329 H       
  34 H34           -1.6459    -4.9204     0.6706 H       
  35 H35           -3.7228    -4.6385    -1.5518 H       
  36 H36           -3.1405    -6.1827    -0.8757 H       
  37 H37           -4.8984    -2.6460     0.2268 H       
  38 H38           -5.0225    -2.9927     1.9718 H       
  39 H39           -2.5593    -3.3722     2.0525 H       
  40 H40           -2.9521    -1.7287     1.4979 H       
@<TRIPOS>BOND
   1    1    2 1
   2    1    6 ar
   3    1    5 ar
   4    2    3 1
   5    2    4 2
   6    3   14 1
   7    3   22 1
   8    3   23 1
   9    5    9 ar
  10    5   24 1
  11    6    7 ar
  12    6   25 1
  13    7    8 ar
  14    7   10 ar
  15    8    9 ar
  16    8   13 ar
  17    9   26 1
  18   10   11 ar
  19   10   27 1
  20   11   12 ar
  21   11   28 1
  22   12   13 ar
  23   12   29 1
  24   13   30 1
  25   14   15 1
  26   14   31 1
  27   14   32 1
  28   15   16 1
  29   15   20 1
  30   16   17 1
  31   16   33 1
  32   16   34 1
  33   17   18 1
  34   17   35 1
  35   17   36 1
  36   18   19 1
  37   18   21 2
  38   19   20 1
  39   19   37 1
  40   19   38 1
  41   20   39 1
  42   20   40 1

#	End of record

