#	Name: ASD03430256
#	Creating user name:	WinNT
#	Creation time:	15. 06. 2019 20:40

#	Modifying user name:	WinNT
#	Modification time:	15. 06. 2019 20:40

#	Program:	/corina/corina34_cracker 3.40 0067  02.08.2006

@<TRIPOS>MOLECULE
ASD03430256
  54   59    0    0    0
SMALL
NO_CHARGES


@<TRIPOS>ATOM
   1 C1            -0.5686     0.7698     1.2108 C.ar    
   2 C2            -0.5387    -0.5975     0.9840 C.ar    
   3 C3             0.6553    -1.2847     1.0423 C.ar    
   4 C4             1.8416    -0.6204     1.3391 C.ar    
   5 C5             1.8084     0.7523     1.5629 C.ar    
   6 C6             0.6112     1.4453     1.5006 C.ar    
   7 O7             2.8963    -1.4842     1.3742 O.3     
   8 C8             1.0155    -2.7304     0.8273 C.3     
   9 C9             2.5428    -2.6948     0.6783 C.3     
  10 C10           -0.2462    -4.5711     1.4110 C.ar    
  11 C11            0.5840    -3.6019     1.9692 C.ar    
  12 C12            0.3499    -3.3084    -0.3884 C.2     
  13 N13           -0.3623    -4.3723     0.0332 N.am    
  14 O14            0.4358    -2.8980    -1.5265 O.2     
  15 C15            0.8457    -3.5977     3.3207 C.ar    
  16 C16            0.2830    -4.5618     4.1387 C.ar    
  17 C17           -0.5424    -5.5288     3.5954 C.ar    
  18 C18           -0.8075    -5.5375     2.2414 C.ar    
  19 C19           -1.1643    -5.2218    -0.8509 C.3     
  20 C20           -2.5656    -4.6744    -0.9381 C.ar    
  21 C21           -2.8854    -3.7526    -1.9141 C.ar    
  22 C22           -3.5302    -5.1012    -0.0433 C.ar    
  23 C23           -4.8191    -4.6036    -0.1172 C.ar    
  24 C24           -5.1497    -3.6775    -1.0849 C.ar    
  25 C25           -4.1826    -3.2471    -1.9935 C.ar    
  26 O26           -1.7550     1.4343     1.1409 O.3     
  27 C27           -1.7991     2.7367     1.7340 C.3     
  28 C28           -0.5502     3.5096     1.2888 C.3     
  29 O29            0.6048     2.7877     1.7290 O.3     
  30 C30           -4.5307    -2.2535    -3.0344 C.2     
  31 N31           -3.8316    -2.2288    -4.2293 N.pl3   
  32 N32           -5.4932    -1.4038    -2.8264 N.2     
  33 O33           -6.1141    -1.3344    -1.5557 O.3     
  34 H34           -1.4537    -1.1263     0.7613 H       
  35 H35            2.7229     1.2812     1.7872 H       
  36 H36            2.8278    -2.6348    -0.3720 H       
  37 H37            2.9985    -3.5626     1.1552 H       
  38 H38            1.4910    -2.8417     3.7429 H       
  39 H39            0.4883    -4.5589     5.1990 H       
  40 H40           -0.9813    -6.2813     4.2338 H       
  41 H41           -1.4530    -6.2964     1.8243 H       
  42 H42           -0.7172    -5.2359    -1.8449 H       
  43 H43           -1.1943    -6.2356    -0.4516 H       
  44 H44           -2.1325    -3.4232    -2.6148 H       
  45 H45           -3.2763    -5.8260     0.7160 H       
  46 H46           -5.5681    -4.9412     0.5838 H       
  47 H47           -6.1562    -3.2901    -1.1419 H       
  48 H48           -2.6945     3.2620     1.4016 H       
  49 H49           -1.8074     2.6459     2.8202 H       
  50 H50           -0.5382     3.5940     0.2021 H       
  51 H51           -0.5547     4.5040     1.7352 H       
  52 H52           -3.1138    -2.8625    -4.3845 H       
  53 H53           -4.0597    -1.5778    -4.9113 H       
  54 H54           -6.8178    -0.6737    -1.4973 H       
@<TRIPOS>BOND
   1    1    2 ar
   2    1    6 ar
   3    1   26 1
   4    2    3 ar
   5    2   34 1
   6    3    4 ar
   7    3    8 1
   8    4    5 ar
   9    4    7 1
  10    5    6 ar
  11    5   35 1
  12    6   29 1
  13    7    9 1
  14    8    9 1
  15    8   11 1
  16    8   12 1
  17    9   36 1
  18    9   37 1
  19   10   11 ar
  20   10   13 1
  21   10   18 ar
  22   11   15 ar
  23   12   13 am
  24   12   14 2
  25   13   19 1
  26   15   16 ar
  27   15   38 1
  28   16   17 ar
  29   16   39 1
  30   17   18 ar
  31   17   40 1
  32   18   41 1
  33   19   20 1
  34   19   42 1
  35   19   43 1
  36   20   21 ar
  37   20   22 ar
  38   21   25 ar
  39   21   44 1
  40   22   23 ar
  41   22   45 1
  42   23   24 ar
  43   23   46 1
  44   24   25 ar
  45   24   47 1
  46   25   30 1
  47   26   27 1
  48   27   28 1
  49   27   48 1
  50   27   49 1
  51   28   29 1
  52   28   50 1
  53   28   51 1
  54   30   31 1
  55   30   32 2
  56   31   52 1
  57   31   53 1
  58   32   33 1
  59   33   54 1

#	End of record

