#	Name: ASD01150708
#	Creating user name:	WinNT
#	Creation time:	15. 06. 2019 19:04

#	Modifying user name:	WinNT
#	Modification time:	15. 06. 2019 19:04

#	Program:	/corina/corina34_cracker 3.40 0067  02.08.2006

@<TRIPOS>MOLECULE
ASD01150708
  48   52    0    0    0
SMALL
NO_CHARGES


@<TRIPOS>ATOM
   1 C1            -0.0434     1.3463    -0.3888 C.2     
   2 O2            -0.6246     0.8307     0.5435 O.2     
   3 C3             4.9306     2.1251     0.3287 C.2     
   4 C4             5.7221     3.1637     0.5484 C.2     
   5 S5             4.8056     4.6681     0.6052 S.3     
   6 C6             3.2819     3.8414     0.3163 C.ar    
   7 N7             2.0384     4.3353     0.2144 N.ar    
   8 C8             0.9953     3.5768    -0.0040 C.ar    
   9 C9             1.1297     2.1868    -0.1453 C.ar    
  10 C10            2.4116     1.6155    -0.0482 C.ar    
  11 C11            3.5126     2.4768     0.1888 C.ar    
  12 C12            7.1739     2.7113     0.6803 C.3     
  13 C13            7.2041     1.2975     0.0666 C.3     
  14 C14            5.7492     0.8347     0.2907 C.3     
  15 N15            2.5927     0.2537    -0.1805 N.3     
  16 C16            2.1920    -0.2030    -1.5174 C.3     
  17 C17            2.5409    -1.6844    -1.6776 C.3     
  18 C18            1.8127    -2.4945    -0.6016 C.3     
  19 C19            2.2103    -1.9671     0.7798 C.3     
  20 C20            1.8711    -0.4775     0.8688 C.3     
  21 C21           -0.3709     4.2047    -0.1062 C.3     
  22 C22           -0.5260     1.1161    -1.7978 C.3     
  23 C23           -1.3446    -0.1482    -2.0664 C.3     
  24 C24           -2.0308     1.2192    -2.0548 C.3     
  25 H25            7.8315     3.3800     0.1250 H       
  26 H26            7.4662     2.6756     1.7298 H       
  27 H27            7.4461     1.3375    -0.9955 H       
  28 H28            7.9031     0.6542     0.6011 H       
  29 H29            5.6566     0.2989     1.2355 H       
  30 H30            5.4248     0.2041    -0.5371 H       
  31 H31            1.1175    -0.0675    -1.6406 H       
  32 H32            2.7202     0.3783    -2.2732 H       
  33 H33            2.2293    -2.0270    -2.6643 H       
  34 H34            3.6171    -1.8187    -1.5682 H       
  35 H35            0.7357    -2.3916    -0.7346 H       
  36 H36            2.0921    -3.5448    -0.6848 H       
  37 H37            1.6625    -2.5117     1.5488 H       
  38 H38            3.2813    -2.1059     0.9279 H       
  39 H39            2.1661    -0.0956     1.8461 H       
  40 H40            0.7980    -0.3407     0.7344 H       
  41 H41           -0.5459     4.5289    -1.1320 H       
  42 H42           -1.1285     3.4745     0.1784 H       
  43 H43           -0.4263     5.0647     0.5612 H       
  44 H44            0.1442     1.4588    -2.5861 H       
  45 H45           -1.2133    -0.6372    -3.0317 H       
  46 H46           -1.5341    -0.8136    -1.2241 H       
  47 H47           -2.6716     1.4535    -1.2048 H       
  48 H48           -2.3508     1.6299    -3.0124 H       
@<TRIPOS>BOND
   1    1    2 2
   2    1    9 1
   3    1   22 1
   4    3    4 2
   5    3   11 1
   6    3   14 1
   7    4    5 1
   8    4   12 1
   9    5    6 1
  10    6    7 ar
  11    6   11 ar
  12    7    8 ar
  13    8    9 ar
  14    8   21 1
  15    9   10 ar
  16   10   11 ar
  17   10   15 1
  18   12   13 1
  19   12   25 1
  20   12   26 1
  21   13   14 1
  22   13   27 1
  23   13   28 1
  24   14   29 1
  25   14   30 1
  26   15   16 1
  27   15   20 1
  28   16   17 1
  29   16   31 1
  30   16   32 1
  31   17   18 1
  32   17   33 1
  33   17   34 1
  34   18   19 1
  35   18   35 1
  36   18   36 1
  37   19   20 1
  38   19   37 1
  39   19   38 1
  40   20   39 1
  41   20   40 1
  42   21   41 1
  43   21   42 1
  44   21   43 1
  45   22   23 1
  46   22   24 1
  47   22   44 1
  48   23   24 1
  49   23   45 1
  50   23   46 1
  51   24   47 1
  52   24   48 1

#	End of record

