#	Name: ASD00061048
#	Creating user name:	WinNT
#	Creation time:	15. 06. 2019 18:29

#	Modifying user name:	WinNT
#	Modification time:	15. 06. 2019 18:29

#	Program:	/corina/corina34_cracker 3.40 0067  02.08.2006

@<TRIPOS>MOLECULE
ASD00061048
  36   37    0    0    0
SMALL
NO_CHARGES


@<TRIPOS>ATOM
   1 C1            -0.0184     1.5028     0.0103 C.ar    
   2 C2             0.0021    -0.0041     0.0020 C.3     
   3 C3            -0.7002    -0.5305     1.2552 C.3     
   4 C4            -0.5729    -2.0312     1.3094 C.2     
   5 O5             0.0209    -2.6214     0.4322 O.2     
   6 C6            -1.1691    -2.7801     2.4265 C.ar    
   7 C7            -1.0530    -4.1731     2.4802 C.ar    
   8 C8            -1.6142    -4.8680     3.5298 C.ar    
   9 C9            -2.2923    -4.1904     4.5298 C.ar    
  10 C10           -2.4118    -2.8111     4.4831 C.ar    
  11 C11           -1.8500    -2.1021     3.4432 C.ar    
  12 C12           -0.7241    -0.5171    -1.2431 C.3     
  13 C13            1.1693     2.2102     0.0028 C.ar    
  14 C14            1.1505     3.5924     0.0104 C.ar    
  15 C15           -0.0559     4.2672     0.0251 C.ar    
  16 C16           -1.2435     3.5598     0.0318 C.ar    
  17 C17           -1.2248     2.1776     0.0197 C.ar    
  18 Br18          -3.0593    -5.1531     5.9654 Br      
  19 C19            0.0370    -0.1013    -2.4756 C.2     
  20 O20            1.0557     0.5396    -2.3690 O.2     
  21 O21           -0.4168    -0.4430    -3.6917 O.3     
  22 H22            1.0345    -0.3534    -0.0097 H       
  23 H23           -0.2382    -0.0945     2.1409 H       
  24 H24           -1.7547    -0.2563     1.2231 H       
  25 H25           -0.5252    -4.7027     1.7009 H       
  26 H26           -1.5253    -5.9435     3.5726 H       
  27 H27           -2.9425    -2.2895     5.2659 H       
  28 H28           -1.9398    -1.0263     3.4106 H       
  29 H29           -0.7871    -1.6046    -1.2047 H       
  30 H30           -1.7288    -0.0959    -1.2772 H       
  31 H31            2.1118     1.6830    -0.0087 H       
  32 H32            2.0784     4.1450     0.0052 H       
  33 H33           -0.0705     5.3471     0.0318 H       
  34 H34           -2.1860     4.0870     0.0436 H       
  35 H35           -2.1526     1.6249     0.0249 H       
  36 H36            0.1054    -0.1536    -4.4524 H       
@<TRIPOS>BOND
   1    1    2 1
   2    1   13 ar
   3    1   17 ar
   4    2    3 1
   5    2   12 1
   6    2   22 1
   7    3    4 1
   8    3   23 1
   9    3   24 1
  10    4    5 2
  11    4    6 1
  12    6    7 ar
  13    6   11 ar
  14    7    8 ar
  15    7   25 1
  16    8    9 ar
  17    8   26 1
  18    9   10 ar
  19    9   18 1
  20   10   11 ar
  21   10   27 1
  22   11   28 1
  23   12   19 1
  24   12   29 1
  25   12   30 1
  26   13   14 ar
  27   13   31 1
  28   14   15 ar
  29   14   32 1
  30   15   16 ar
  31   15   33 1
  32   16   17 ar
  33   16   34 1
  34   17   35 1
  35   19   20 2
  36   19   21 1
  37   21   36 1

#	End of record

