#	Name: ASD03330833
#	Creating user name:	WinNT
#	Creation time:	15. 06. 2019 20:38

#	Modifying user name:	WinNT
#	Modification time:	15. 06. 2019 20:38

#	Program:	/corina/corina34_cracker 3.40 0067  02.08.2006

@<TRIPOS>MOLECULE
ASD03330833
  57   60    0    0    0
SMALL
NO_CHARGES


@<TRIPOS>ATOM
   1 C1            -0.0029     1.3567    -0.1286 C.2     
   2 N2             0.0192     0.0069    -0.2215 N.pl3   
   3 C3             1.2706     1.7641     0.1358 C.2     
   4 N4             2.0519     0.6635     0.1877 N.2     
   5 C5             1.3097    -0.3963    -0.0300 C.2     
   6 C6             1.7907    -1.7951    -0.0620 C.ar    
   7 C7             0.9544    -2.8330     0.3499 C.ar    
   8 C8             1.7152     3.1550     0.3296 C.2     
   9 O9             0.9123     4.0657     0.2579 O.2     
  10 C10            3.4302     4.7273     0.7689 C.2     
  11 N11            3.0118     3.4185     0.5865 N.am    
  12 C12            1.4089    -4.1353     0.3177 C.ar    
  13 C13            2.6911    -4.4129    -0.1215 C.ar    
  14 C14            3.5253    -3.3881    -0.5313 C.ar    
  15 C15            3.0805    -2.0822    -0.5097 C.ar    
  16 C16            4.7016     5.1527     1.0288 C.2     
  17 C17           -1.1383    -0.8557    -0.4716 C.3     
  18 C18           -1.9437    -0.2997    -1.6488 C.3     
  19 C19           -2.9924     0.6864    -1.1369 C.3     
  20 C20           -2.4672     1.4372     0.0843 C.3     
  21 C21           -1.2165     2.2315    -0.3021 C.3     
  22 C22           -3.5436     2.3974     0.5942 C.3     
  23 O23            2.6677     5.8312     0.7197 O.3     
  24 N24            3.3203     6.8293     0.9195 N.2     
  25 C25            4.5789     6.5539     1.1169 C.2     
  26 C26            5.6843     7.5397     1.3951 C.3     
  27 C27            6.5442     7.7091     0.1410 C.3     
  28 C28            5.0779     8.8896     1.7838 C.3     
  29 C29            6.5530     7.0213     2.5430 C.3     
  30 H30           -0.0465    -2.6175     0.6936 H       
  31 H31            3.6522     2.6921     0.6437 H       
  32 H32            0.7625    -4.9397     0.6363 H       
  33 H33            3.0425    -5.4339    -0.1442 H       
  34 H34            4.5253    -3.6112    -0.8727 H       
  35 H35            3.7325    -1.2831    -0.8302 H       
  36 H36            5.5937     4.5544     1.1410 H       
  37 H37           -0.7963    -1.8631    -0.7089 H       
  38 H38           -1.7681    -0.8857     0.4176 H       
  39 H39           -1.2718     0.2112    -2.3386 H       
  40 H40           -2.4400    -1.1196    -2.1680 H       
  41 H41           -3.2298     1.4012    -1.9248 H       
  42 H42           -3.8963     0.1419    -0.8640 H       
  43 H43           -2.2161     0.7235     0.8690 H       
  44 H44           -1.1287     3.1080     0.3400 H       
  45 H45           -1.2924     2.5471    -1.3427 H       
  46 H46           -4.4337     1.8320     0.8703 H       
  47 H47           -3.1688     2.9335     1.4662 H       
  48 H48           -3.7953     3.1109    -0.1904 H       
  49 H49            5.9253     8.0784    -0.6767 H       
  50 H50            7.3437     8.4221     0.3423 H       
  51 H51            6.9762     6.7474    -0.1359 H       
  52 H52            4.4653     8.7689     2.6773 H       
  53 H53            5.8775     9.6026     1.9851 H       
  54 H54            4.4591     9.2589     0.9661 H       
  55 H55            6.9849     6.0596     2.2660 H       
  56 H56            7.3525     7.7343     2.7442 H       
  57 H57            5.9404     6.9007     3.4364 H       
@<TRIPOS>BOND
   1    1    2 1
   2    1    3 2
   3    1   21 1
   4    2   17 1
   5    2    5 1
   6    3    4 1
   7    3    8 1
   8    4    5 2
   9    5    6 1
  10    6    7 ar
  11    6   15 ar
  12    7   12 ar
  13    7   30 1
  14    8    9 2
  15    8   11 am
  16   10   23 1
  17   10   11 1
  18   10   16 2
  19   11   31 1
  20   12   13 ar
  21   12   32 1
  22   13   14 ar
  23   13   33 1
  24   14   15 ar
  25   14   34 1
  26   15   35 1
  27   16   25 1
  28   16   36 1
  29   17   18 1
  30   17   37 1
  31   17   38 1
  32   18   19 1
  33   18   39 1
  34   18   40 1
  35   19   20 1
  36   19   41 1
  37   19   42 1
  38   20   21 1
  39   20   22 1
  40   20   43 1
  41   21   44 1
  42   21   45 1
  43   22   46 1
  44   22   47 1
  45   22   48 1
  46   23   24 1
  47   24   25 2
  48   25   26 1
  49   26   27 1
  50   26   28 1
  51   26   29 1
  52   27   49 1
  53   27   50 1
  54   27   51 1
  55   28   52 1
  56   28   53 1
  57   28   54 1
  58   29   55 1
  59   29   56 1
  60   29   57 1

#	End of record

