#	Name: ASD04910333
#	Creating user name:	WinNT
#	Creation time:	15. 06. 2019 20:55

#	Modifying user name:	WinNT
#	Modification time:	15. 06. 2019 20:55

#	Program:	/corina/corina34_cracker 3.40 0067  02.08.2006

@<TRIPOS>MOLECULE
ASD04910333
  61   63    0    0    0
SMALL
NO_CHARGES


@<TRIPOS>ATOM
   1 C1             1.0970     2.0425     0.0146 C.2     
   2 C2             0.9686     0.5414     0.0511 C.3     
   3 C3             2.3588    -0.0916    -0.0363 C.3     
   4 O4             2.1884     2.5535    -0.0724 O.2     
   5 O5            -0.0015     2.8116     0.0732 O.3     
   6 C6             3.3366    -2.3233    -0.0652 C.2     
   7 C7             3.2109    -3.7929    -0.0295 C.ar    
   8 C8             4.3524    -4.6068    -0.0959 C.ar    
   9 C9             4.1888    -5.9650    -0.0595 C.ar    
  10 C10            2.9042    -6.4966     0.0416 C.ar    
  11 N11            1.8420    -5.7052     0.1023 N.ar    
  12 C12            1.9556    -4.3935     0.0766 C.ar    
  13 O13            4.4349    -1.8090    -0.1528 O.2     
  14 N14            2.2340    -1.5509    -0.0008 N.am    
  15 N15            2.7349    -7.8703     0.0786 N.pl3   
  16 C16            3.8875    -8.7557    -0.1056 C.3     
  17 C17            4.5744    -8.9857     1.2420 C.3     
  18 C18            5.8415    -9.8173     1.0332 C.3     
  19 C19            6.8526    -9.0101     0.2164 C.3     
  20 C20            3.4226   -10.0758    -0.6643 C.ar    
  21 C21            4.1690   -10.7144    -1.6376 C.ar    
  22 C22            3.7455   -11.9244    -2.1515 C.ar    
  23 C23            2.5694   -12.4998    -1.6897 C.ar    
  24 C24            1.8224   -11.8565    -0.7120 C.ar    
  25 C25            2.2536   -10.6489    -0.1985 C.ar    
  26 N26            2.1368   -13.7276    -2.2097 N.pl3   
  27 N27            2.7888   -14.4819    -3.1937 N.2     
  28 C28            2.0837   -15.5619    -3.4155 C.2     
  29 C29            0.9609   -15.5311    -2.5811 C.2     
  30 C30            1.0192   -14.3965    -1.8460 C.2     
  31 C31           -0.1194   -16.5793    -2.5095 C.3     
  32 F32            0.1676   -17.6073    -3.4140 F       
  33 F33           -0.1771   -17.1016    -1.2129 F       
  34 F34           -1.3515   -16.0022    -2.8351 F       
  35 C35            6.4495   -10.1705     2.3921 C.3     
  36 H36            0.4902     0.2402     0.9830 H       
  37 H37            0.3638     0.2078    -0.7922 H       
  38 H38            2.8372     0.2095    -0.9683 H       
  39 H39            2.9636     0.2419     0.8069 H       
  40 H40            0.1311     3.7691     0.0465 H       
  41 H41            5.3375    -4.1710    -0.1743 H       
  42 H42            5.0470    -6.6189    -0.1091 H       
  43 H43            1.0702    -3.7778     0.1334 H       
  44 H44            1.3578    -1.9612     0.0690 H       
  45 H45            1.8531    -8.2465     0.2266 H       
  46 H46            4.5919    -8.2956    -0.7986 H       
  47 H47            4.8391    -8.0249     1.6836 H       
  48 H48            3.8964    -9.5178     1.9093 H       
  49 H49            5.5909   -10.7333     0.4982 H       
  50 H50            7.1219    -8.1061     0.7627 H       
  51 H51            7.7455    -9.6116     0.0467 H       
  52 H52            6.4105    -8.7374    -0.7419 H       
  53 H53            5.0838   -10.2663    -1.9965 H       
  54 H54            4.3285   -12.4223    -2.9122 H       
  55 H55            0.9071   -12.3016    -0.3508 H       
  56 H56            1.6749   -10.1499     0.5647 H       
  57 H57            2.3264   -16.3423    -4.1215 H       
  58 H58            0.3010   -14.0807    -1.1038 H       
  59 H59            5.7292   -10.7456     2.9740 H       
  60 H60            7.3522   -10.7630     2.2433 H       
  61 H61            6.7002    -9.2545     2.9271 H       
@<TRIPOS>BOND
   1    1    2 1
   2    1    4 2
   3    1    5 1
   4    2    3 1
   5    2   36 1
   6    2   37 1
   7    3   14 1
   8    3   38 1
   9    3   39 1
  10    5   40 1
  11    6    7 1
  12    6   13 2
  13    6   14 am
  14    7    8 ar
  15    7   12 ar
  16    8    9 ar
  17    8   41 1
  18    9   10 ar
  19    9   42 1
  20   10   11 ar
  21   10   15 1
  22   11   12 ar
  23   12   43 1
  24   14   44 1
  25   15   16 1
  26   15   45 1
  27   16   17 1
  28   16   20 1
  29   16   46 1
  30   17   18 1
  31   17   47 1
  32   17   48 1
  33   18   19 1
  34   18   35 1
  35   18   49 1
  36   19   50 1
  37   19   51 1
  38   19   52 1
  39   20   21 ar
  40   20   25 ar
  41   21   22 ar
  42   21   53 1
  43   22   23 ar
  44   22   54 1
  45   23   24 ar
  46   23   26 1
  47   24   25 ar
  48   24   55 1
  49   25   56 1
  50   26   27 1
  51   26   30 1
  52   27   28 2
  53   28   29 1
  54   28   57 1
  55   29   30 2
  56   29   31 1
  57   30   58 1
  58   31   32 1
  59   31   33 1
  60   31   34 1
  61   35   59 1
  62   35   60 1
  63   35   61 1

#	End of record

