#	Name: ASD04880484
#	Creating user name:	WinNT
#	Creation time:	15. 06. 2019 20:53

#	Modifying user name:	WinNT
#	Modification time:	15. 06. 2019 20:53

#	Program:	/corina/corina34_cracker 3.40 0067  02.08.2006

@<TRIPOS>MOLECULE
ASD04880484
  35   37    0    0    0
SMALL
NO_CHARGES


@<TRIPOS>ATOM
   1 C1            -0.0144     1.2119     0.0087 C.2     
   2 O2             0.0625    -0.0016    -0.0136 O.2     
   3 C3             1.2156     2.0309    -0.0197 C.ar    
   4 C4             1.1305     3.4192    -0.1380 C.ar    
   5 C5             2.2844     4.1787    -0.1639 C.ar    
   6 C6             3.5232     3.5639    -0.0726 C.ar    
   7 C7             3.6121     2.1887     0.0447 C.ar    
   8 C8             2.4667     1.4199     0.0775 C.ar    
   9 F9             2.2051     5.5224    -0.2788 F       
  10 N10           -1.2214     1.8099     0.0537 N.am    
  11 N11           -1.4432     3.1783     0.1947 N.2     
  12 C12           -2.6876     3.5109     0.2107 C.2     
  13 C13           -3.5434     2.2727     0.0667 C.3     
  14 C14           -2.5202     1.1251    -0.0447 C.3     
  15 O15           -3.9312     6.7776     1.1149 O.3     
  16 N16           -3.9126     6.9026    -0.0867 N.2     
  17 C17           -3.4879     5.8289    -0.6830 C.2     
  18 C18           -3.1990     4.8876     0.3486 C.2     
  19 C19           -3.5086     5.5657     1.4986 C.2     
  20 C20           -3.3955     5.0518     2.9107 C.3     
  21 C21           -3.3325     5.6201    -2.1674 C.3     
  22 H22            0.1652     3.8984    -0.2094 H       
  23 H23            4.4228     4.1611    -0.0936 H       
  24 H24            4.5804     1.7157     0.1150 H       
  25 H25            2.5384     0.3466     0.1740 H       
  26 H26           -4.1765     2.1413     0.9442 H       
  27 H27           -4.1489     2.3295    -0.8378 H       
  28 H28           -2.6141     0.6168    -1.0043 H       
  29 H29           -2.6456     0.4206     0.7776 H       
  30 H30           -3.7163     5.8272     3.6064 H       
  31 H31           -4.0290     4.1727     3.0293 H       
  32 H32           -2.3595     4.7837     3.1179 H       
  33 H33           -2.3310     5.9221    -2.4738 H       
  34 H34           -3.4827     4.5667    -2.4038 H       
  35 H35           -4.0714     6.2205    -2.6981 H       
@<TRIPOS>BOND
   1    1    2 2
   2    1    3 1
   3    1   10 am
   4    3    4 ar
   5    3    8 ar
   6    4    5 ar
   7    4   22 1
   8    5    6 ar
   9    5    9 1
  10    6    7 ar
  11    6   23 1
  12    7    8 ar
  13    7   24 1
  14    8   25 1
  15   10   11 1
  16   10   14 1
  17   11   12 2
  18   12   13 1
  19   12   18 1
  20   13   14 1
  21   13   26 1
  22   13   27 1
  23   14   28 1
  24   14   29 1
  25   15   16 1
  26   15   19 1
  27   16   17 2
  28   17   18 1
  29   17   21 1
  30   18   19 2
  31   19   20 1
  32   20   30 1
  33   20   31 1
  34   20   32 1
  35   21   33 1
  36   21   34 1
  37   21   35 1

#	End of record

