#	Name: ASD00960061
#	Creating user name:	WinNT
#	Creation time:	15. 06. 2019 18:53

#	Modifying user name:	WinNT
#	Modification time:	15. 06. 2019 18:53

#	Program:	/corina/corina34_cracker 3.40 0067  02.08.2006

@<TRIPOS>MOLECULE
ASD00960061
  41   44    0    0    0
SMALL
NO_CHARGES


@<TRIPOS>ATOM
   1 C1             0.0200     1.5279     0.1231 C.3     
   2 C2             0.0482    -0.0166     0.1524 C.3     
   3 C3            -0.6895    -0.3808     1.4599 C.3     
   4 O4            -1.5347     0.7573     1.7360 O.3     
   5 C5            -0.7314     1.9142     1.4164 C.3     
   6 C6            -1.6250     3.1314     1.1699 C.3     
   7 F7             1.3209     2.0424     0.1398 F       
   8 C8            -1.5251    -1.6194     1.2632 C.2     
   9 C9            -1.0761    -2.8914     1.3775 C.2     
  10 N10           -2.8430    -1.6321     0.9505 N.pl3   
  11 C11           -3.2627    -2.9404     0.8531 C.2     
  12 C12           -2.1603    -3.7562     1.1196 C.2     
  13 N13           -3.7818    -0.6147     0.7255 N.2     
  14 C14           -5.0172    -0.9187     0.4325 C.2     
  15 N15           -5.4343    -2.1787     0.3361 N.2     
  16 C16           -4.6118    -3.1968     0.5334 C.2     
  17 O17           -2.2773     3.4978     2.3873 O.3     
  18 N18           -5.0699    -4.4956     0.4273 N.pl3   
  19 C19           -2.1349    -5.2284     1.1288 C.2     
  20 N20           -1.2502    -5.9856     0.5181 N.2     
  21 C21           -1.5511    -7.2726     0.7549 C.2     
  22 C22           -2.6484    -7.3040     1.5308 C.2     
  23 O23           -3.0095    -6.0257     1.7684 O.3     
  24 C24           -0.6918    -0.5894    -1.0581 C.3     
  25 O25            1.3953    -0.4923     0.1851 O.3     
  26 *26            2.1611    -0.1239    -0.9400 Du      
  27 H27           -0.5191     1.8835    -0.7550 H       
  28 H28            0.0246    -0.5286     2.2700 H       
  29 H29           -0.0237     2.1184     2.2198 H       
  30 H30           -1.0156     3.9644     0.8192 H       
  31 H31           -2.3733     2.8861     0.4162 H       
  32 H32           -0.0677    -3.1907     1.6221 H       
  33 H33           -5.7247    -0.1205     0.2629 H       
  34 H34           -2.8615     4.2640     2.3053 H       
  35 H35           -6.0189    -4.6682     0.3243 H       
  36 H36           -4.4427    -5.2350     0.4559 H       
  37 H37           -1.0078    -8.1305     0.3872 H       
  38 H38           -3.1467    -8.1887     1.8988 H       
  39 H39           -0.1969    -0.2649    -1.9734 H       
  40 H40           -0.6838    -1.6781    -1.0071 H       
  41 H41           -1.7219    -0.2331    -1.0562 H       
@<TRIPOS>BOND
   1    1    2 1
   2    1    7 1
   3    1    5 1
   4    1   27 1
   5    2   24 1
   6    2   25 1
   7    2    3 1
   8    3    4 1
   9    3    8 1
  10    3   28 1
  11    4    5 1
  12    5    6 1
  13    5   29 1
  14    6   17 1
  15    6   30 1
  16    6   31 1
  17    8    9 2
  18    8   10 1
  19    9   12 1
  20    9   32 1
  21   10   11 1
  22   10   13 1
  23   11   12 2
  24   11   16 1
  25   12   19 1
  26   13   14 2
  27   14   15 1
  28   14   33 1
  29   15   16 2
  30   16   18 1
  31   17   34 1
  32   18   35 1
  33   18   36 1
  34   19   20 2
  35   19   23 1
  36   20   21 1
  37   21   22 2
  38   21   37 1
  39   22   23 1
  40   22   38 1
  41   24   39 1
  42   24   40 1
  43   24   41 1
  44   25   26 1

#	End of record

