#	Name: ASD03092862
#	Creating user name:	WinNT
#	Creation time:	15. 06. 2019 20:33

#	Modifying user name:	WinNT
#	Modification time:	15. 06. 2019 20:33

#	Program:	/corina/corina34_cracker 3.40 0067  02.08.2006

@<TRIPOS>MOLECULE
ASD03092862
  41   44    0    0    0
SMALL
NO_CHARGES


@<TRIPOS>ATOM
   1 Cl1           -0.0063    -0.0038     0.0272 Cl      
   2 C2            -0.0283     1.7320     0.0342 C.ar    
   3 C3            -1.2440     2.4038     0.0799 C.ar    
   4 C4            -1.2822     3.7705     0.0857 C.ar    
   5 C5            -0.0938     4.4928     0.0459 C.ar    
   6 C6             0.2662     5.9175     0.0377 C.2     
   7 N7             1.5810     5.9672    -0.0087 N.2     
   8 N8             2.1052     4.7955    -0.0311 N.pl3   
   9 H9             3.0591     4.6230    -0.0655 H       
  10 C10            1.1430     3.8197    -0.0001 C.ar    
  11 C11            1.1603     2.4290     0.0000 C.ar    
  12 C12           -0.6600     7.0626     0.0743 C.2     
  13 O13           -1.8611     6.8725     0.1163 O.2     
  14 C14           -0.1317     8.4385     0.0600 C.ar    
  15 C15            1.2460     8.6742     0.1406 C.ar    
  16 C16            1.6909     9.9840     0.1228 C.ar    
  17 C17            0.7726    11.0146     0.0269 C.ar    
  18 N18           -0.5216    10.7727    -0.0477 N.ar    
  19 C19           -1.0019     9.5389    -0.0407 C.ar    
  20 N20           -2.3659     9.3314    -0.1273 N.pl3   
  21 C21           -3.2833    10.4735    -0.1083 C.3     
  22 C22           -4.7029     9.9793    -0.2151 C.ar    
  23 C23           -5.2874     9.8191    -1.4576 C.ar    
  24 C24           -6.5896     9.3658    -1.5556 C.ar    
  25 C25           -7.3072     9.0723    -0.4112 C.ar    
  26 C26           -6.7225     9.2316     0.8312 C.ar    
  27 C27           -5.4188     9.6808     0.9291 C.ar    
  28 H28           -2.1659     1.8420     0.1107 H       
  29 H29           -2.2301     4.2869     0.1206 H       
  30 H30            2.1002     1.8979    -0.0306 H       
  31 H31            1.9443     7.8536     0.2152 H       
  32 H32            2.7472    10.2006     0.1837 H       
  33 H33            1.1224    12.0363     0.0132 H       
  34 H34           -2.7156     8.4296    -0.2005 H       
  35 H35           -3.1593    11.0236     0.8245 H       
  36 H36           -3.0630    11.1305    -0.9497 H       
  37 H37           -4.7267    10.0485    -2.3517 H       
  38 H38           -7.0464     9.2414    -2.5263 H       
  39 H39           -8.3249     8.7188    -0.4877 H       
  40 H40           -7.2833     9.0026     1.7254 H       
  41 H41           -4.9607     9.8017     1.8996 H       
@<TRIPOS>BOND
   1    1    2 1
   2    2   11 ar
   3    2    3 ar
   4    3    4 ar
   5    3   28 1
   6    4    5 ar
   7    4   29 1
   8    5   10 ar
   9    5    6 1
  10    6    7 2
  11    6   12 1
  12    7    8 1
  13    8    9 1
  14    8   10 1
  15   10   11 ar
  16   11   30 1
  17   12   13 2
  18   12   14 1
  19   14   19 ar
  20   14   15 ar
  21   15   16 ar
  22   15   31 1
  23   16   17 ar
  24   16   32 1
  25   17   18 ar
  26   17   33 1
  27   18   19 ar
  28   19   20 1
  29   20   21 1
  30   20   34 1
  31   21   22 1
  32   21   35 1
  33   21   36 1
  34   22   27 ar
  35   22   23 ar
  36   23   24 ar
  37   23   37 1
  38   24   25 ar
  39   24   38 1
  40   25   26 ar
  41   25   39 1
  42   26   27 ar
  43   26   40 1
  44   27   41 1

#	End of record

