#	Name: ASD00960271
#	Creating user name:	WinNT
#	Creation time:	15. 06. 2019 18:53

#	Modifying user name:	WinNT
#	Modification time:	15. 06. 2019 18:53

#	Program:	/corina/corina34_cracker 3.40 0067  02.08.2006

@<TRIPOS>MOLECULE
ASD00960271
  41   43    0    0    0
SMALL
NO_CHARGES


@<TRIPOS>ATOM
   1 C1            -0.0169     1.3969     0.0097 C.2     
   2 C2             0.0021    -0.0041     0.0020 C.2     
   3 N3             1.2707     1.8209    -0.0003 N.pl3   
   4 C4             2.0983     0.7305    -0.0004 C.2     
   5 C5             1.3615    -0.3902    -0.0067 C.2     
   6 N6             1.7851     3.1271     0.0043 N.2     
   7 C7             3.0531     3.2931    -0.2333 C.2     
   8 N8             3.8831     2.2364    -0.5263 N.pl3   
   9 C9             3.6021     0.8954     0.0174 C.3     
  10 N10            4.1040     0.7953     1.3943 N.3     
  11 C11           -1.1688    -0.9013     0.0036 C.2     
  12 N12           -0.9938    -2.2376    -0.0046 N.am    
  13 O13           -2.2918    -0.4352     0.0123 O.2     
  14 C14           -2.1567    -3.1286    -0.0031 C.3     
  15 C15           -1.2109     2.2485     0.0203 C.2     
  16 O16           -2.3174     1.7442     0.0235 O.2     
  17 O17           -1.0817     3.5911     0.0264 O.3     
  18 C18           -2.3063     4.3711     0.0367 C.3     
  19 C19           -1.9666     5.8394     0.0424 C.ar    
  20 C20           -1.8171     6.5188    -1.1521 C.ar    
  21 C21           -1.5054     7.8656    -1.1468 C.ar    
  22 C22           -1.3438     8.5330     0.0529 C.ar    
  23 C23           -1.4942     7.8537     1.2474 C.ar    
  24 C24           -1.8102     6.5079     1.2422 C.ar    
  25 H25            1.7381    -1.4023    -0.0163 H       
  26 H26            3.4663     4.2903    -0.1998 H       
  27 H27            4.6575     2.3744    -1.0939 H       
  28 H28            4.0684     0.1338    -0.6076 H       
  29 H29            5.1004     0.9504     1.4282 H       
  30 H30            3.6174     1.4353     2.0040 H       
  31 H31           -0.0979    -2.6094    -0.0116 H       
  32 H32           -1.8200    -4.1653    -0.0105 H       
  33 H33           -2.7527    -2.9466     0.8912 H       
  34 H34           -2.7625    -2.9369    -0.8887 H       
  35 H35           -2.8934     4.1375    -0.8514 H       
  36 H36           -2.8842     4.1285     0.9285 H       
  37 H37           -1.9433     5.9974    -2.0894 H       
  38 H38           -1.3879     8.3963    -2.0801 H       
  39 H39           -1.0996     9.5850     0.0570 H       
  40 H40           -1.3676     8.3750     2.1847 H       
  41 H41           -1.9314     5.9781     2.1755 H       
@<TRIPOS>BOND
   1    1    2 2
   2    1    3 1
   3    1   15 1
   4    2   11 1
   5    2    5 1
   6    3    4 1
   7    3    6 1
   8    4    5 2
   9    4    9 1
  10    5   25 1
  11    6    7 2
  12    7    8 1
  13    7   26 1
  14    8    9 1
  15    8   27 1
  16    9   10 1
  17    9   28 1
  18   10   29 1
  19   10   30 1
  20   11   12 am
  21   11   13 2
  22   12   14 1
  23   12   31 1
  24   14   32 1
  25   14   33 1
  26   14   34 1
  27   15   16 2
  28   15   17 1
  29   17   18 1
  30   18   19 1
  31   18   35 1
  32   18   36 1
  33   19   20 ar
  34   19   24 ar
  35   20   21 ar
  36   20   37 1
  37   21   22 ar
  38   21   38 1
  39   22   23 ar
  40   22   39 1
  41   23   24 ar
  42   23   40 1
  43   24   41 1

#	End of record

