#	Name: ASD09740033
#	Creating user name:	WinNT
#	Creation time:	15. 06. 2019 21:22

#	Modifying user name:	WinNT
#	Modification time:	15. 06. 2019 21:22

#	Program:	/corina/corina34_cracker 3.40 0067  02.08.2006

@<TRIPOS>MOLECULE
ASD09740033
  61   65    0    0    0
SMALL
NO_CHARGES


@<TRIPOS>ATOM
   1 N1            -0.0144     1.2085     0.0087 N.2     
   2 O2             0.0021    -0.0041     0.0020 O.3     
   3 C3             1.2060     1.6802    -0.0004 C.2     
   4 N4             2.0461     0.6244    -0.0141 N.2     
   5 C5             1.2702    -0.4440    -0.0125 C.2     
   6 C6             1.7127    -1.8530    -0.0238 C.ar    
   7 C7             1.5948     3.1129     0.0035 C.ar    
   8 C8             3.0754    -2.1583    -0.0380 C.ar    
   9 C9             0.7694    -2.8829    -0.0146 C.ar    
  10 C10            1.1885    -4.1997    -0.0248 C.ar    
  11 C11            2.5497    -4.4975    -0.0443 C.ar    
  12 C12            3.4869    -3.4740    -0.0481 C.ar    
  13 C13            2.9406     3.4694    -0.0079 C.ar    
  14 C14            3.2969     4.8026    -0.0048 C.ar    
  15 C15            2.3201     5.7805     0.0102 C.ar    
  16 C16            0.9786     5.4335     0.0222 C.ar    
  17 C17            0.6116     4.1027     0.0129 C.ar    
  18 C18           -0.2588     6.3055     0.0404 C.3     
  19 C19           -1.4134     5.3772    -0.3926 C.3     
  20 C20           -0.8974     3.9866     0.0296 C.3     
  21 N21           -0.4995     6.8207     1.3948 N.3     
  22 C22           -0.4297     5.7373     2.3924 C.3     
  23 C23            0.6432     6.1370     3.4271 C.3     
  24 C24            0.7176     7.6792     3.2755 C.3     
  25 C25            0.4946     7.8550     1.7527 C.3     
  26 O26            2.0018     8.1705     3.6648 O.3     
  27 O27            2.9603    -5.7926    -0.0543 O.3     
  28 C28            4.6372    -7.5326    -0.0830 C.3     
  29 C29            4.3699    -6.0262    -0.0742 C.3     
  30 O30            0.2726    -5.2050    -0.0153 O.3     
  31 C31           -1.9787    -6.0832     0.0131 C.3     
  32 C32           -1.1054    -4.8270     0.0051 C.3     
  33 H33            3.8068    -1.3637    -0.0414 H       
  34 H34           -0.2852    -2.6507     0.0009 H       
  35 H35            4.5410    -3.7087    -0.0636 H       
  36 H36            3.7034     2.7049    -0.0189 H       
  37 H37            4.3400     5.0822    -0.0136 H       
  38 H38            2.6045     6.8223     0.0129 H       
  39 H39           -0.1512     7.1295    -0.6650 H       
  40 H40           -2.3323     5.6289     0.1370 H       
  41 H41           -1.5622     5.4211    -1.4715 H       
  42 H42           -1.2268     3.2290    -0.6814 H       
  43 H43           -1.2464     3.7421     1.0329 H       
  44 H44           -1.3955     5.6237     2.8847 H       
  45 H45           -0.1466     4.8035     1.9066 H       
  46 H46            0.3282     5.8636     4.4342 H       
  47 H47            1.6022     5.6792     3.1845 H       
  48 H48           -0.0741     8.1662     3.8448 H       
  49 H49            1.4260     7.6896     1.2111 H       
  50 H50            0.1017     8.8490     1.5389 H       
  51 H51            2.2260     7.9958     4.5891 H       
  52 H52            5.7124    -7.7108    -0.0982 H       
  53 H53            4.2068    -7.9832     0.8113 H       
  54 H54            4.1827    -7.9771    -0.9684 H       
  55 H55            4.8003    -5.5756    -0.9686 H       
  56 H56            4.8244    -5.5817     0.8112 H       
  57 H57           -1.7767    -6.6719    -0.8817 H       
  58 H58           -1.7519    -6.6778     0.8980 H       
  59 H59           -3.0298    -5.7949     0.0287 H       
  60 H60           -1.3074    -4.2383     0.8999 H       
  61 H61           -1.3322    -4.2324    -0.8798 H       
@<TRIPOS>BOND
   1    1    2 1
   2    1    3 2
   3    2    5 1
   4    3    4 1
   5    3    7 1
   6    4    5 2
   7    5    6 1
   8    6    8 ar
   9    6    9 ar
  10    7   13 ar
  11    7   17 ar
  12    8   12 ar
  13    8   33 1
  14    9   10 ar
  15    9   34 1
  16   10   11 ar
  17   10   30 1
  18   11   12 ar
  19   11   27 1
  20   12   35 1
  21   13   14 ar
  22   13   36 1
  23   14   15 ar
  24   14   37 1
  25   15   16 ar
  26   15   38 1
  27   16   17 ar
  28   16   18 1
  29   17   20 1
  30   18   19 1
  31   18   21 1
  32   18   39 1
  33   19   20 1
  34   19   40 1
  35   19   41 1
  36   20   42 1
  37   20   43 1
  38   21   22 1
  39   21   25 1
  40   22   23 1
  41   22   44 1
  42   22   45 1
  43   23   24 1
  44   23   46 1
  45   23   47 1
  46   24   25 1
  47   24   26 1
  48   24   48 1
  49   25   49 1
  50   25   50 1
  51   26   51 1
  52   27   29 1
  53   28   29 1
  54   28   52 1
  55   28   53 1
  56   28   54 1
  57   29   55 1
  58   29   56 1
  59   30   32 1
  60   31   32 1
  61   31   57 1
  62   31   58 1
  63   31   59 1
  64   32   60 1
  65   32   61 1

#	End of record

