#	Name: ASD03092755
#	Creating user name:	WinNT
#	Creation time:	15. 06. 2019 20:33

#	Modifying user name:	WinNT
#	Modification time:	15. 06. 2019 20:33

#	Program:	/corina/corina34_cracker 3.40 0067  02.08.2006

@<TRIPOS>MOLECULE
ASD03092755
  34   36    0    0    0
SMALL
NO_CHARGES


@<TRIPOS>ATOM
   1 F1             0.0021    -0.0041     0.0020 F       
   2 C2            -0.0169     1.3948     0.0097 C.3     
   3 F3             1.2956     1.8790    -0.0002 F       
   4 F4            -0.6935     1.8582    -1.1237 F       
   5 C5            -0.7223     1.8808     1.2496 C.2     
   6 C6            -0.9216     3.1695     1.5677 C.2     
   7 C7            -1.6401     3.1859     2.8430 C.ar    
   8 C8            -2.1250     4.1959     3.6768 C.ar    
   9 C9            -2.7735     3.8233     4.8394 C.ar    
  10 C10           -3.3174     4.8713     5.7758 C.3     
  11 N11           -4.6971     5.1917     5.4018 N.pl3   
  12 C12           -5.4093     6.1354     6.1240 C.ar    
  13 C13           -4.8210     6.7920     7.2067 C.ar    
  14 C14           -5.5724     7.7245     7.8948 C.ar    
  15 N15           -6.8175     7.9641     7.5084 N.ar    
  16 C16           -7.3443     7.3273     6.4818 C.ar    
  17 N17           -6.6624     6.4344     5.7937 N.ar    
  18 C18           -4.9840     8.4603     9.0710 C.3     
  19 F19           -4.3681     9.6348     8.6257 F       
  20 F20           -6.0010     8.7814     9.9764 F       
  21 F21           -4.0366     7.6476     9.7029 F       
  22 C22           -2.9195     2.4770     5.1359 C.ar    
  23 N23           -2.4549     1.5406     4.3362 N.ar    
  24 C24           -1.8246     1.8383     3.2079 C.ar    
  25 N25           -1.2600     1.0732     2.2157 N.pl3   
  26 H26           -1.2432     0.1034     2.2026 H       
  27 H27           -0.6110     4.0295     0.9931 H       
  28 H28           -1.9969     5.2373     3.4210 H       
  29 H29           -3.2967     4.4917     6.7974 H       
  30 H30           -2.7049     5.7705     5.7099 H       
  31 H31           -5.1121     4.7431     4.6485 H       
  32 H32           -3.8040     6.5759     7.4991 H       
  33 H33           -8.3618     7.5468     6.1938 H       
  34 H34           -3.4264     2.1896     6.0453 H       
@<TRIPOS>BOND
   1    1    2 1
   2    2    3 1
   3    2    4 1
   4    2    5 1
   5    5   25 1
   6    5    6 2
   7    6    7 1
   8    6   27 1
   9    7   24 ar
  10    7    8 ar
  11    8    9 ar
  12    8   28 1
  13    9   10 1
  14    9   22 ar
  15   10   11 1
  16   10   29 1
  17   10   30 1
  18   11   12 1
  19   11   31 1
  20   12   17 ar
  21   12   13 ar
  22   13   14 ar
  23   13   32 1
  24   14   15 ar
  25   14   18 1
  26   15   16 ar
  27   16   17 ar
  28   16   33 1
  29   18   19 1
  30   18   20 1
  31   18   21 1
  32   22   23 ar
  33   22   34 1
  34   23   24 ar
  35   24   25 1
  36   25   26 1

#	End of record

