#	Name: ASD03082386
#	Creating user name:	WinNT
#	Creation time:	15. 06. 2019 20:27

#	Modifying user name:	WinNT
#	Modification time:	15. 06. 2019 20:27

#	Program:	/corina/corina34_cracker 3.40 0067  02.08.2006

@<TRIPOS>MOLECULE
ASD03082386
  47   49    0    0    0
SMALL
NO_CHARGES


@<TRIPOS>ATOM
   1 C1            -1.1342    -3.2066    -1.6588 C.ar    
   2 C2            -1.9769    -2.4565    -0.8480 C.ar    
   3 C3            -2.9598    -3.0888    -0.0978 C.ar    
   4 C4            -3.0971    -4.4663    -0.1602 C.ar    
   5 C5            -2.2529    -5.2114    -0.9717 C.ar    
   6 C6            -1.2744    -4.5809    -1.7184 C.ar    
   7 Cl7           -0.2204    -5.5163    -2.7322 Cl      
   8 N8            -1.8355    -1.0681    -0.7871 N.pl3   
   9 C9            -2.9412    -0.2648    -0.4886 C.2     
  10 C10           -2.9183     1.1253    -0.2826 C.2     
  11 N11           -4.1799    -0.6782    -0.3581 N.2     
  12 N12           -4.9825     0.4307    -0.0607 N.pl3   
  13 C13           -4.1818     1.5276    -0.0201 C.2     
  14 C14           -6.3641     0.4125     0.1529 C.ar    
  15 C15           -7.1861     1.3908    -0.4027 C.ar    
  16 C16           -6.9554    -0.5880     0.9223 C.ar    
  17 C17           -8.3222    -0.5708     1.1089 C.ar    
  18 N18           -9.0666     0.3763     0.5700 N.ar    
  19 C19           -8.5451     1.3372    -0.1685 C.ar    
  20 C20           -8.9735    -1.6473     1.9383 C.3     
  21 H21           -9.1893     2.0937    -0.5916 H       
  22 C22           -4.6232     2.9397     0.2666 C.3     
  23 C23           -4.7860     3.7007    -1.0507 C.3     
  24 C24           -5.3610     5.0903    -0.7693 C.3     
  25 O25           -5.5130     5.8010    -1.9997 O.3     
  26 O26           -4.0579    -5.0875     0.5732 O.3     
  27 C27           -4.1423    -6.5095     0.4603 C.3     
  28 H28           -0.3724    -2.7157    -2.2461 H       
  29 H29           -3.6158    -2.5079     0.5335 H       
  30 H30           -2.3600    -6.2850    -1.0198 H       
  31 H31           -0.9706    -0.6611    -0.9517 H       
  32 H32           -2.0454     1.7598    -0.3260 H       
  33 H33           -6.7655     2.1803    -1.0079 H       
  34 H34           -6.3520    -1.3662     1.3659 H       
  35 H35           -9.0082    -1.3316     2.9810 H       
  36 H36           -9.9872    -1.8208     1.5773 H       
  37 H37           -8.3961    -2.5682     1.8566 H       
  38 H38           -5.5758     2.9222     0.7962 H       
  39 H39           -3.8740     3.4365     0.8830 H       
  40 H40           -3.8146     3.8006    -1.5349 H       
  41 H41           -5.4636     3.1528    -1.7054 H       
  42 H42           -6.3324     4.9903    -0.2851 H       
  43 H43           -4.6833     5.6382    -0.1146 H       
  44 H44           -5.8738     6.6923    -1.8971 H       
  45 H45           -4.3442    -6.7803    -0.5761 H       
  46 H46           -3.1991    -6.9557     0.7753 H       
  47 H47           -4.9482    -6.8772     1.0954 H       
@<TRIPOS>BOND
   1    1    2 ar
   2    1    6 ar
   3    1   28 1
   4    2    3 ar
   5    2    8 1
   6    3    4 ar
   7    3   29 1
   8    4    5 ar
   9    4   26 1
  10    5    6 ar
  11    5   30 1
  12    6    7 1
  13    8    9 1
  14    8   31 1
  15    9   10 1
  16    9   11 2
  17   10   13 2
  18   10   32 1
  19   11   12 1
  20   12   13 1
  21   12   14 1
  22   13   22 1
  23   14   15 ar
  24   14   16 ar
  25   15   19 ar
  26   15   33 1
  27   16   17 ar
  28   16   34 1
  29   17   18 ar
  30   17   20 1
  31   18   19 ar
  32   19   21 1
  33   20   35 1
  34   20   36 1
  35   20   37 1
  36   22   23 1
  37   22   38 1
  38   22   39 1
  39   23   24 1
  40   23   40 1
  41   23   41 1
  42   24   25 1
  43   24   42 1
  44   24   43 1
  45   25   44 1
  46   26   27 1
  47   27   45 1
  48   27   46 1
  49   27   47 1

#	End of record

