#	Name: ASD01912919
#	Creating user name:	WinNT
#	Creation time:	15. 06. 2019 20:00

#	Modifying user name:	WinNT
#	Modification time:	15. 06. 2019 20:00

#	Program:	/corina/corina34_cracker 3.40 0067  02.08.2006

@<TRIPOS>MOLECULE
ASD01912919
  45   49    0    0    0
SMALL
NO_CHARGES


@<TRIPOS>ATOM
   1 C1            -0.0165     1.3669     0.0096 C.2     
   2 N2             0.0021    -0.0041     0.0020 N.pl3   
   3 C3            -1.2021    -0.6918     0.0094 C.2     
   4 C4            -2.3629    -0.0492     0.0235 C.2     
   5 N5            -2.4357     1.3307     0.0317 N.am    
   6 C6            -1.3018     2.0667     0.0309 C.2     
   7 C7             1.3016     1.7837    -0.0008 C.2     
   8 C8             2.0550     0.6111    -0.0143 C.2     
   9 N9             1.2243    -0.4045    -0.0118 N.2     
  10 O10           -1.3488     3.2837     0.0384 O.2     
  11 C11           -3.6806     1.9648     0.0460 C.ar    
  12 C12            3.5595     0.5249    -0.0295 C.3     
  13 O13            4.1121     1.8427    -0.0282 O.3     
  14 C14            5.4673     1.9434    -0.0410 C.ar    
  15 C15            6.0713     3.1924    -0.0405 C.ar    
  16 C16            7.4491     3.2921    -0.0536 C.ar    
  17 C17            8.2260     2.1485    -0.0672 C.ar    
  18 C18            7.6265     0.9025    -0.0682 C.ar    
  19 C19            6.2492     0.7974    -0.0489 C.ar    
  20 C20           -4.3253     2.2943    -1.1655 C.ar    
  21 C21           -5.5872     2.9365    -1.1278 C.ar    
  22 C22           -6.1754     3.2349     0.1154 C.ar    
  23 C23           -5.5291     2.9052     1.2698 C.ar    
  24 C24           -4.2917     2.2685     1.2432 C.ar    
  25 F25           -7.3784     3.8477     0.1649 F       
  26 C26           -3.7393     1.9981    -2.4061 C.ar    
  27 C27           -4.3895     2.3308    -3.5552 C.ar    
  28 C28           -5.6310     2.9625    -3.5191 C.ar    
  29 C29           -6.2289     3.2644    -2.3342 C.ar    
  30 H30           -1.1949    -1.7718     0.0032 H       
  31 H31           -3.2785    -0.6220     0.0285 H       
  32 H32            1.6686     2.7994     0.0006 H       
  33 H33            3.9016    -0.0135     0.8543 H       
  34 H34            3.8840    -0.0043    -0.9255 H       
  35 H35            5.4648     4.0860    -0.0302 H       
  36 H36            7.9197     4.2642    -0.0536 H       
  37 H37            9.3030     2.2285    -0.0775 H       
  38 H38            8.2356     0.0107    -0.0796 H       
  39 H39            5.7814    -0.1760    -0.0497 H       
  40 H40           -5.9867     3.1378     2.2200 H       
  41 H41           -3.8004     2.0180     2.1718 H       
  42 H42           -2.7773     1.5090    -2.4489 H       
  43 H43           -3.9362     2.1021    -4.5085 H       
  44 H44           -6.1260     3.2162    -4.4448 H       
  45 H45           -7.1912     3.7546    -2.3213 H       
@<TRIPOS>BOND
   1    1    2 1
   2    1    7 2
   3    1    6 1
   4    2    3 1
   5    2    9 1
   6    3    4 2
   7    3   30 1
   8    4    5 1
   9    4   31 1
  10    5    6 am
  11    5   11 1
  12    6   10 2
  13    7    8 1
  14    7   32 1
  15    8    9 2
  16    8   12 1
  17   11   20 ar
  18   11   24 ar
  19   12   13 1
  20   12   33 1
  21   12   34 1
  22   13   14 1
  23   14   15 ar
  24   14   19 ar
  25   15   16 ar
  26   15   35 1
  27   16   17 ar
  28   16   36 1
  29   17   18 ar
  30   17   37 1
  31   18   19 ar
  32   18   38 1
  33   19   39 1
  34   20   21 ar
  35   20   26 ar
  36   21   22 ar
  37   21   29 ar
  38   22   23 ar
  39   22   25 1
  40   23   24 ar
  41   23   40 1
  42   24   41 1
  43   26   27 ar
  44   26   42 1
  45   27   28 ar
  46   27   43 1
  47   28   29 ar
  48   28   44 1
  49   29   45 1

#	End of record

