#	Name: ASD08070114
#	Creating user name:	WinNT
#	Creation time:	15. 06. 2019 21:14

#	Modifying user name:	WinNT
#	Modification time:	15. 06. 2019 21:14

#	Program:	/corina/corina34_cracker 3.40 0067  02.08.2006

@<TRIPOS>MOLECULE
ASD08070114
  39   39    0    0    0
SMALL
NO_CHARGES


@<TRIPOS>ATOM
   1 N1            -0.0162     1.3436     0.0094 N.am    
   2 C2            -0.1395     0.0017     0.0372 C.2     
   3 N3            -1.3586    -0.5607     0.1554 N.am    
   4 C4            -1.4926    -2.0192     0.1856 C.3     
   5 C5            -2.7803    -2.3980     0.9200 C.3     
   6 C6            -2.6762    -1.9707     2.3854 C.3     
   7 C7            -3.9638    -2.3494     3.1198 C.3     
   8 C8             1.2552     1.9298     0.0089 C.ar    
   9 C9             1.4744     3.1170    -0.6799 C.ar    
  10 C10            2.7306     3.6927    -0.6782 C.ar    
  11 O11            0.8491    -0.7014    -0.0444 O.2     
  12 C12            2.2981     1.3298     0.7008 C.ar    
  13 C13            3.5517     1.9107     0.6983 C.ar    
  14 C14            3.7685     3.0886     0.0078 C.ar    
  15 Cl15           0.1719     3.8753    -1.5415 Cl      
  16 C16           -1.5452    -2.5563    -1.2461 C.3     
  17 C17           -0.2091    -2.2869    -1.9413 C.3     
  18 C18           -0.2617    -2.8239    -3.3730 C.3     
  19 H19           -0.8083     1.9030    -0.0142 H       
  20 H20           -2.1472     0.0003     0.2205 H       
  21 H21           -0.6375    -2.4520     0.7048 H       
  22 H22           -3.6264    -1.8933     0.4536 H       
  23 H23           -2.9257    -3.4769     0.8655 H       
  24 H24           -1.8300    -2.4753     2.8518 H       
  25 H25           -2.5308    -0.8918     2.4398 H       
  26 H26           -4.8100    -1.8448     2.6534 H       
  27 H27           -4.1092    -3.4283     3.0654 H       
  28 H28           -3.8897    -2.0450     4.1638 H       
  29 H29            2.9022     4.6150    -1.2133 H       
  30 H30            2.1298     0.4098     1.2409 H       
  31 H31            4.3633     1.4442     1.2370 H       
  32 H32            4.7495     3.5404     0.0077 H       
  33 H33           -1.7338    -3.6296    -1.2249 H       
  34 H34           -2.3459    -2.0575    -1.7921 H       
  35 H35           -0.0206    -1.2135    -1.9626 H       
  36 H36            0.5916    -2.7857    -1.3953 H       
  37 H37           -0.4503    -3.8973    -3.3517 H       
  38 H38           -1.0624    -2.3251    -3.9190 H       
  39 H39            0.6901    -2.6320    -3.8682 H       
@<TRIPOS>BOND
   1    1    2 am
   2    1    8 1
   3    1   19 1
   4    2    3 am
   5    2   11 2
   6    3    4 1
   7    3   20 1
   8    4    5 1
   9    4   16 1
  10    4   21 1
  11    5    6 1
  12    5   22 1
  13    5   23 1
  14    6    7 1
  15    6   24 1
  16    6   25 1
  17    7   26 1
  18    7   27 1
  19    7   28 1
  20    8    9 ar
  21    8   12 ar
  22    9   10 ar
  23    9   15 1
  24   10   14 ar
  25   10   29 1
  26   12   13 ar
  27   12   30 1
  28   13   14 ar
  29   13   31 1
  30   14   32 1
  31   16   17 1
  32   16   33 1
  33   16   34 1
  34   17   18 1
  35   17   35 1
  36   17   36 1
  37   18   37 1
  38   18   38 1
  39   18   39 1

#	End of record

