#	Name: ASD01850090
#	Creating user name:	WinNT
#	Creation time:	15. 06. 2019 19:38

#	Modifying user name:	WinNT
#	Modification time:	15. 06. 2019 19:38

#	Program:	/corina/corina34_cracker 3.40 0067  02.08.2006

@<TRIPOS>MOLECULE
ASD01850090
  49   53    0    0    0
SMALL
NO_CHARGES


@<TRIPOS>ATOM
   1 C1             0.1479     1.0693    -0.1552 C.ar    
   2 C2             0.3400    -0.2959    -0.0395 C.ar    
   3 C3             1.6110    -0.8077     0.1238 C.ar    
   4 C4             2.7065     0.0536     0.1724 C.ar    
   5 C5             2.5002     1.4353     0.0727 C.ar    
   6 C6             1.2293     1.9325    -0.0990 C.ar    
   7 C7             4.1586    -0.1879     0.3116 C.2     
   8 N8             4.8248     0.9538     0.1443 N.am    
   9 C9             3.8526     2.0693     0.2173 C.3     
  10 C10            6.0895     1.6474    -0.1638 C.3     
  11 C11            5.6437     2.7487    -1.1572 C.3     
  12 N12            4.1999     2.9495    -0.9037 N.am    
  13 C13            3.3694     3.7755    -1.5703 C.2     
  14 C14            3.9070     4.6941    -2.5967 C.ar    
  15 C15            3.0745     5.6402    -3.1943 C.ar    
  16 C16            3.5851     6.4972    -4.1550 C.ar    
  17 C17            4.9214     6.4132    -4.5211 C.ar    
  18 C18            5.7480     5.4757    -3.9295 C.ar    
  19 C19            5.2511     4.6212    -2.9669 C.ar    
  20 O20            2.1784     3.7654    -1.3277 O.2     
  21 C21            3.9647     2.7915     1.5352 C.ar    
  22 C22            3.6654     4.1389     1.6124 C.ar    
  23 C23            3.7681     4.8018     2.8208 C.ar    
  24 C24            4.1704     4.1166     3.9534 C.ar    
  25 C25            4.4698     2.7681     3.8756 C.ar    
  26 C26            4.3613     2.1050     2.6677 C.ar    
  27 O27            4.6683    -1.2667     0.5439 O.2     
  28 Cl28           4.3001     4.9487     5.4715 Cl      
  29 O29            2.7773     7.4206    -4.7399 O.3     
  30 C30            3.3704     8.2719    -5.7226 C.3     
  31 H31           -0.8482     1.4628    -0.2943 H       
  32 H32           -0.5081    -0.9635    -0.0769 H       
  33 H33            1.7571    -1.8740     0.2143 H       
  34 H34            1.0746     2.9974    -0.1908 H       
  35 H35            6.5167     2.0893     0.7363 H       
  36 H36            6.7984     0.9665    -0.6349 H       
  37 H37            6.1917     3.6716    -0.9677 H       
  38 H38            5.8039     2.4181    -2.1834 H       
  39 H39            2.0348     5.7041    -2.9091 H       
  40 H40            5.3169     7.0822    -5.2711 H       
  41 H41            6.7868     5.4151    -4.2185 H       
  42 H42            5.8994     3.8902    -2.5068 H       
  43 H43            3.3517     4.6738     0.7282 H       
  44 H44            3.5346     5.8546     2.8809 H       
  45 H45            4.7839     2.2327     4.7594 H       
  46 H46            4.5950     1.0524     2.6068 H       
  47 H47            4.1832     8.8391    -5.2690 H       
  48 H48            3.7619     7.6658    -6.5396 H       
  49 H49            2.6183     8.9600    -6.1086 H       
@<TRIPOS>BOND
   1    1    2 ar
   2    1    6 ar
   3    1   31 1
   4    2    3 ar
   5    2   32 1
   6    3    4 ar
   7    3   33 1
   8    4    5 ar
   9    4    7 1
  10    5    6 ar
  11    5    9 1
  12    6   34 1
  13    7    8 am
  14    7   27 2
  15    8    9 1
  16    8   10 1
  17    9   21 1
  18    9   12 1
  19   10   11 1
  20   10   35 1
  21   10   36 1
  22   11   12 1
  23   11   37 1
  24   11   38 1
  25   12   13 am
  26   13   14 1
  27   13   20 2
  28   14   15 ar
  29   14   19 ar
  30   15   16 ar
  31   15   39 1
  32   16   17 ar
  33   16   29 1
  34   17   18 ar
  35   17   40 1
  36   18   19 ar
  37   18   41 1
  38   19   42 1
  39   21   22 ar
  40   21   26 ar
  41   22   23 ar
  42   22   43 1
  43   23   24 ar
  44   23   44 1
  45   24   25 ar
  46   24   28 1
  47   25   26 ar
  48   25   45 1
  49   26   46 1
  50   29   30 1
  51   30   47 1
  52   30   48 1
  53   30   49 1

#	End of record

