#	Name: ASD05473010
#	Creating user name:	WinNT
#	Creation time:	15. 06. 2019 21:00

#	Modifying user name:	WinNT
#	Modification time:	15. 06. 2019 21:00

#	Program:	/corina/corina34_cracker 3.40 0067  02.08.2006

@<TRIPOS>MOLECULE
ASD05473010
  43   45    0    0    0
SMALL
NO_CHARGES


@<TRIPOS>ATOM
   1 C1            -0.8732    -0.2146    -1.0691 C.2     
   2 C2            -0.0741     0.1304     0.1611 C.3     
   3 C3             1.2848    -0.5701     0.0996 C.3     
   4 C4             2.1534    -0.1015     1.2687 C.3     
   5 O5            -0.3671    -0.8587    -1.9572 O.2     
   6 O6            -2.1489     0.1891    -1.1757 O.3     
   7 C7             2.4657     1.3639     1.1068 C.2     
   8 N8             2.1990     2.3244     2.0333 N.pl3   
   9 C9             2.6309     3.5265     1.5166 C.ar    
  10 C10            3.1630     3.2335     0.2471 C.ar    
  11 N11            3.0342     1.8934     0.0638 N.2     
  12 C12            3.6869     4.2627    -0.5326 C.ar    
  13 C13            3.6763     5.5664    -0.0443 C.ar    
  14 C14            3.1423     5.8401     1.2223 C.ar    
  15 C15            2.6286     4.8345     1.9882 C.ar    
  16 C16            1.0856    -2.0613     0.1878 C.ar    
  17 C17            1.5131    -2.8775    -0.8428 C.ar    
  18 C18            1.3307    -4.2452    -0.7625 C.ar    
  19 C19            0.7203    -4.7974     0.3496 C.ar    
  20 C20            0.2928    -3.9799     1.3807 C.ar    
  21 C21            0.4807    -2.6129     1.3018 C.ar    
  22 Cl22           0.4904    -6.5151     0.4509 Cl      
  23 C23            4.2292     6.6630    -0.8623 C.2     
  24 O24            4.6928     6.4276    -1.9603 O.2     
  25 O25            4.2198     7.9254    -0.3915 O.3     
  26 C26            4.7802     8.9534    -1.2503 C.3     
  27 H27            0.0750     1.2092     0.2069 H       
  28 H28           -0.6132    -0.1999     1.0490 H       
  29 H29            1.7779    -0.3244    -0.8408 H       
  30 H30            1.6176    -0.2576     2.2050 H       
  31 H31            3.0824    -0.6716     1.2824 H       
  32 H32           -2.6209    -0.0562    -1.9833 H       
  33 H33            1.7812     2.1880     2.8981 H       
  34 H34            4.0985     4.0506    -1.5084 H       
  35 H35            3.1374     6.8539     1.5946 H       
  36 H36            2.2190     5.0551     2.9628 H       
  37 H37            1.9892    -2.4464    -1.7110 H       
  38 H38            1.6644    -4.8828    -1.5678 H       
  39 H39           -0.1838    -4.4104     2.2490 H       
  40 H40            0.1510    -1.9751     2.1085 H       
  41 H41            5.8260     8.7251    -1.4554 H       
  42 H42            4.2248     8.9862    -2.1876 H       
  43 H43            4.7103     9.9205    -0.7524 H       
@<TRIPOS>BOND
   1    1    2 1
   2    1    5 2
   3    1    6 1
   4    2    3 1
   5    2   27 1
   6    2   28 1
   7    3    4 1
   8    3   16 1
   9    3   29 1
  10    4    7 1
  11    4   30 1
  12    4   31 1
  13    6   32 1
  14    7    8 1
  15    7   11 2
  16    8    9 1
  17    8   33 1
  18    9   10 ar
  19    9   15 ar
  20   10   11 1
  21   10   12 ar
  22   12   13 ar
  23   12   34 1
  24   13   14 ar
  25   13   23 1
  26   14   15 ar
  27   14   35 1
  28   15   36 1
  29   16   17 ar
  30   16   21 ar
  31   17   18 ar
  32   17   37 1
  33   18   19 ar
  34   18   38 1
  35   19   20 ar
  36   19   22 1
  37   20   21 ar
  38   20   39 1
  39   21   40 1
  40   23   24 2
  41   23   25 1
  42   25   26 1
  43   26   41 1
  44   26   42 1
  45   26   43 1

#	End of record

