#	Name: ASD02620007
#	Creating user name:	WinNT
#	Creation time:	15. 06. 2019 20:26

#	Modifying user name:	WinNT
#	Modification time:	15. 06. 2019 20:26

#	Program:	/corina/corina34_cracker 3.40 0067  02.08.2006

@<TRIPOS>MOLECULE
ASD02620007
  22   22    0    0    0
SMALL
NO_CHARGES


@<TRIPOS>ATOM
   1 N1            -0.0165     1.3676     0.0096 N.pl3   
   2 C2             0.0021    -0.0041     0.0020 C.2     
   3 N3             1.1992    -0.6737    -0.0130 N.pl3   
   4 N4            -1.1299    -0.6783     0.0092 N.2     
   5 N5            -2.2557    -0.0486     0.0233 N.2     
   6 C6            -3.3768    -0.7164     0.0305 C.2     
   7 C7            -4.6610     0.0019     0.0466 C.ar    
   8 C8            -5.8654    -0.7103     0.0542 C.ar    
   9 C9            -7.0655    -0.0288     0.0751 C.ar    
  10 C10           -7.0797     1.3548     0.0879 C.ar    
  11 C11           -5.8931     2.0669     0.0804 C.ar    
  12 C12           -4.6844     1.4009     0.0601 C.ar    
  13 Cl13          -3.1972     2.2965     0.0513 Cl      
  14 Cl14          -5.8503    -2.4462     0.0371 Cl      
  15 H15            0.8168     1.8640     0.0043 H       
  16 H16           -0.8631     1.8411     0.0161 H       
  17 H17            2.0326    -0.1773    -0.0183 H       
  18 H18            1.2124    -1.6436    -0.0183 H       
  19 H19           -3.3622    -1.7963     0.0245 H       
  20 H20           -7.9960    -0.5770     0.0810 H       
  21 H21           -8.0222     1.8820     0.1034 H       
  22 H22           -5.9130     3.1466     0.0905 H       
@<TRIPOS>BOND
   1    1    2 1
   2    1   15 1
   3    1   16 1
   4    2    3 1
   5    2    4 2
   6    3   17 1
   7    3   18 1
   8    4    5 1
   9    5    6 2
  10    6    7 1
  11    6   19 1
  12    7    8 ar
  13    7   12 ar
  14    8    9 ar
  15    8   14 1
  16    9   10 ar
  17    9   20 1
  18   10   11 ar
  19   10   21 1
  20   11   12 ar
  21   11   22 1
  22   12   13 1

#	End of record

