#	Name: ASD01001039
#	Creating user name:	WinNT
#	Creation time:	15. 06. 2019 18:55

#	Modifying user name:	WinNT
#	Modification time:	15. 06. 2019 18:55

#	Program:	/corina/corina34_cracker 3.40 0067  02.08.2006

@<TRIPOS>MOLECULE
ASD01001039
  44   46    0    0    0
SMALL
NO_CHARGES


@<TRIPOS>ATOM
   1 C1             0.2223     2.5135     0.5124 C.ar    
   2 C2            -0.1815     1.2591     0.9300 C.ar    
   3 C3             1.5483     2.7438     0.1978 C.ar    
   4 C4             0.7416     0.2344     1.0332 C.ar    
   5 C5             2.4715     1.7196     0.3004 C.ar    
   6 C6             2.0689     0.4654     0.7183 C.ar    
   7 C7             3.9170     1.9710    -0.0436 C.3     
   8 C8             4.6889     0.6806     0.0560 C.ar    
   9 C9             4.0131     2.5066    -1.4490 C.ar    
  10 S10            4.6122     3.1824     1.1140 S.3     
  11 C11            4.3643    -0.3841    -0.7638 C.ar    
  12 C12            5.7252     0.5634     0.9633 C.ar    
  13 C13            3.0499     2.1736    -2.3829 C.ar    
  14 C14            5.0614     3.3355    -1.8026 C.ar    
  15 C15            4.2113     2.4743     2.7352 C.3     
  16 C16            5.0760    -1.5659    -0.6763 C.ar    
  17 C17            6.4332    -0.6204     1.0548 C.ar    
  18 C18            3.1350     2.6694    -3.6705 C.ar    
  19 C19            5.1495     3.8267    -3.0917 C.ar    
  20 C20            4.8551     3.3211     3.8349 C.3     
  21 C21            6.1126    -1.6829     0.2307 C.ar    
  22 C22            4.1830     3.4986    -4.0240 C.ar    
  23 N23            4.5304     2.7476     5.1478 N.3     
  24 Br24           0.1901    -1.4815     1.6051 Br      
  25 H25            5.9366     3.3305     3.6999 H       
  26 H26           -0.4994     3.3125     0.4275 H       
  27 H27           -1.2176     1.0793     1.1761 H       
  28 H28            1.8634     3.7239    -0.1284 H       
  29 H29            2.7902    -0.3344     0.7991 H       
  30 H30            3.5544    -0.2926    -1.4724 H       
  31 H31            5.9820     1.3968     1.6005 H       
  32 H32            2.2311     1.5257    -2.1067 H       
  33 H33            5.8113     3.5995    -1.0716 H       
  34 H34            3.1297     2.4648     2.8701 H       
  35 H35            4.5933     1.4549     2.7910 H       
  36 H36            4.8219    -2.3979    -1.3163 H       
  37 H37            7.2431    -0.7118     1.7634 H       
  38 H38            2.3828     2.4086    -4.4003 H       
  39 H39            5.9683     4.4745    -3.3679 H       
  40 H40            4.4731     4.3404     3.7791 H       
  41 H41            6.6684    -2.6064     0.2993 H       
  42 H42            4.2518     3.8824    -5.0311 H       
  43 H43            4.8170     1.7817     5.2014 H       
  44 H44            4.9445     3.2894     5.8914 H       
@<TRIPOS>BOND
   1    1    2 ar
   2    1    3 ar
   3    1   26 1
   4    2    4 ar
   5    2   27 1
   6    3    5 ar
   7    3   28 1
   8    4    6 ar
   9    4   24 1
  10    5    6 ar
  11    5    7 1
  12    6   29 1
  13    7   10 1
  14    7    8 1
  15    7    9 1
  16    8   12 ar
  17    8   11 ar
  18    9   14 ar
  19    9   13 ar
  20   10   15 1
  21   11   16 ar
  22   11   30 1
  23   12   17 ar
  24   12   31 1
  25   13   18 ar
  26   13   32 1
  27   14   19 ar
  28   14   33 1
  29   15   20 1
  30   15   34 1
  31   15   35 1
  32   16   21 ar
  33   16   36 1
  34   17   21 ar
  35   17   37 1
  36   18   22 ar
  37   18   38 1
  38   19   22 ar
  39   19   39 1
  40   20   23 1
  41   20   25 1
  42   20   40 1
  43   21   41 1
  44   22   42 1
  45   23   43 1
  46   23   44 1

#	End of record

