#	Name: ASD03091809
#	Creating user name:	WinNT
#	Creation time:	15. 06. 2019 20:31

#	Modifying user name:	WinNT
#	Modification time:	15. 06. 2019 20:31

#	Program:	/corina/corina34_cracker 3.40 0067  02.08.2006

@<TRIPOS>MOLECULE
ASD03091809
  46   50    0    0    0
SMALL
NO_CHARGES


@<TRIPOS>ATOM
   1 C1            -0.0188     1.5329     0.0105 C.3     
   2 C2             0.0021    -0.0041     0.0020 C.3     
   3 C3             0.9954    -0.4922     1.0603 C.3     
   4 C4             0.6526     0.1298     2.4170 C.3     
   5 C5             0.5877     1.6576     2.2618 C.3     
   6 C6             1.8474     2.1081     1.4868 C.3     
   7 C7             1.4466     2.0257    -0.0009 C.3     
   8 N8            -0.5375     1.9593     1.3374 N.3     
   9 C9            -0.8531     3.3940     1.3429 C.3     
  10 O10            0.9239    -1.9161     1.1585 O.3     
  11 C11            2.0591    -2.5666     1.5182 C.ar    
  12 C12            2.0604    -3.9557     1.6331 C.ar    
  13 C13            3.2408    -4.5763     2.0026 C.ar    
  14 C14            4.3595    -3.7702     2.2377 C.ar    
  15 N15            4.2627    -2.4544     2.1031 N.ar    
  16 N16            3.1674    -1.8831     1.7549 N.ar    
  17 C17            8.0574    -5.5535     3.3835 C.ar    
  18 C18            7.9803    -4.1636     3.2470 C.ar    
  19 C19            9.2522    -3.5202     3.5359 C.2     
  20 C20           10.2272    -4.3427     3.8670 C.2     
  21 S21            9.6882    -6.0106     3.8607 S.3     
  22 C22            6.7528    -3.5835     2.8681 C.ar    
  23 C23            5.6491    -4.3846     2.6366 C.ar    
  24 C24            5.7463    -5.7730     2.7783 C.ar    
  25 C25            6.9289    -6.3441     3.1394 C.ar    
  26 H26           -0.5970     1.9402    -0.8189 H       
  27 H27           -0.9932    -0.3839     0.2327 H       
  28 H28            0.3116    -0.3596    -0.9808 H       
  29 H29            2.0051    -0.1997     0.7721 H       
  30 H30           -0.3134    -0.2441     2.7564 H       
  31 H31            1.4225    -0.1310     3.1432 H       
  32 H32            0.4916     2.1641     3.2222 H       
  33 H33            2.1103     3.1320     1.7526 H       
  34 H34            2.6803     1.4359     1.6930 H       
  35 H35            2.0825     1.3130    -0.5261 H       
  36 H36            1.5125     3.0091    -0.4665 H       
  37 H37           -1.6113     3.6021     0.5880 H       
  38 H38           -1.2304     3.6792     2.3250 H       
  39 H39            0.0481     3.9652     1.1200 H       
  40 H40            1.1668    -4.5305     1.4399 H       
  41 H41            3.2965    -5.6499     2.1065 H       
  42 H42            9.3874    -2.4500     3.4829 H       
  43 H43           11.2314    -4.0288     4.1109 H       
  44 H44            6.6739    -2.5120     2.7581 H       
  45 H45            4.8817    -6.3944     2.5972 H       
  46 H46            6.9943    -7.4169     3.2460 H       
@<TRIPOS>BOND
   1    1    2 1
   2    1    7 1
   3    1    8 1
   4    1   26 1
   5    2    3 1
   6    2   27 1
   7    2   28 1
   8    3    4 1
   9    3   10 1
  10    3   29 1
  11    4    5 1
  12    4   30 1
  13    4   31 1
  14    5    6 1
  15    5    8 1
  16    5   32 1
  17    6    7 1
  18    6   33 1
  19    6   34 1
  20    7   35 1
  21    7   36 1
  22    8    9 1
  23    9   37 1
  24    9   38 1
  25    9   39 1
  26   10   11 1
  27   11   12 ar
  28   11   16 ar
  29   12   13 ar
  30   12   40 1
  31   13   14 ar
  32   13   41 1
  33   14   15 ar
  34   14   23 1
  35   15   16 ar
  36   17   18 ar
  37   17   21 1
  38   17   25 ar
  39   18   19 1
  40   18   22 ar
  41   19   20 2
  42   19   42 1
  43   20   21 1
  44   20   43 1
  45   22   23 ar
  46   22   44 1
  47   23   24 ar
  48   24   25 ar
  49   24   45 1
  50   25   46 1

#	End of record

