#	Name: ASD02030229
#	Creating user name:	WinNT
#	Creation time:	15. 06. 2019 20:14

#	Modifying user name:	WinNT
#	Modification time:	15. 06. 2019 20:14

#	Program:	/corina/corina34_cracker 3.40 0067  02.08.2006

@<TRIPOS>MOLECULE
ASD02030229
  59   63    0    0    0
SMALL
NO_CHARGES


@<TRIPOS>ATOM
   1 N1            -0.9984     2.1272    -1.3667 N.am    
   2 C2            -0.9325     0.7004    -1.7129 C.3     
   3 C3            -1.0923    -0.1233    -0.4290 C.3     
   4 N4            -2.2643     0.3740     0.3051 N.am    
   5 C5            -2.3303     1.8008     0.6513 C.3     
   6 C6            -2.1678     2.6234    -0.6276 C.3     
   7 C7            -0.0017     2.9646    -1.7158 C.2     
   8 C8             1.2194     2.4332    -2.3577 C.2     
   9 N9             2.3085     3.1174    -2.6341 N.2     
  10 N10            1.4150     1.1630    -2.7568 N.2     
  11 C11            2.6158     1.0981    -3.2730 C.2     
  12 N12            3.1626     2.3283    -3.1892 N.pl3   
  13 C13            4.4431     2.6874    -3.6311 C.ar    
  14 O14           -0.1069     4.1568    -1.5029 O.2     
  15 C15           -3.2610    -0.4634     0.6543 C.2     
  16 C16           -3.1812    -1.8965     0.2990 C.ar    
  17 O17           -4.2255    -0.0405     1.2612 O.2     
  18 C18            4.8879     3.9942    -3.4855 C.ar    
  19 C19            6.1517     4.3453    -3.9225 C.ar    
  20 C20            6.9720     3.3952    -4.5049 C.ar    
  21 C21            6.5305     2.0930    -4.6513 C.ar    
  22 C22            5.2716     1.7352    -4.2105 C.ar    
  23 C23           -3.6830     2.1109     1.2953 C.3     
  24 C24           -4.3437    -2.6135     0.0223 C.ar    
  25 Cl25           6.7095     5.9792    -3.7411 Cl      
  26 C26           -4.2601    -3.9613    -0.3110 C.ar    
  27 C27           -3.0158    -4.5874    -0.3666 C.ar    
  28 C28           -1.8659    -3.8727    -0.0915 C.ar    
  29 C29           -1.9401    -2.5336     0.2344 C.ar    
  30 C30           -5.4938    -4.7318    -0.6067 C.2     
  31 N31           -6.7231    -4.2619    -0.5893 N.2     
  32 N32           -7.5935    -5.3069    -0.9242 N.pl3   
  33 C33           -6.8545    -6.4158    -1.1429 C.2     
  34 C34           -5.5553    -6.0935    -0.9612 C.2     
  35 C35           -9.0524    -5.2134    -1.0198 C.3     
  36 H36           -1.7359     0.4550    -2.4074 H       
  37 H37            0.0312     0.4795    -2.1717 H       
  38 H38           -1.2384    -1.1730    -0.6837 H       
  39 H39           -0.2007    -0.0148     0.1885 H       
  40 H40           -1.5268     2.0462     1.3458 H       
  41 H41           -2.0218     3.6728    -0.3715 H       
  42 H42           -3.0581     2.5159    -1.2472 H       
  43 H43            3.0851     0.2183    -3.6879 H       
  44 H44            4.2473     4.7359    -3.0316 H       
  45 H45            7.9588     3.6714    -4.8460 H       
  46 H46            7.1728     1.3537    -5.1068 H       
  47 H47            4.9279     0.7178    -4.3250 H       
  48 H48           -3.7651     1.5779     2.2426 H       
  49 H49           -3.7633     3.1832     1.4736 H       
  50 H50           -4.4844     1.7924     0.6286 H       
  51 H51           -5.3058    -2.1247     0.0668 H       
  52 H52           -2.9506    -5.6340    -0.6251 H       
  53 H53           -0.9045    -4.3629    -0.1357 H       
  54 H54           -1.0379    -1.9799     0.4485 H       
  55 H55           -7.2350    -7.3882    -1.4187 H       
  56 H56           -4.7138    -6.7629    -1.0624 H       
  57 H57           -9.3331    -4.9399    -2.0369 H       
  58 H58           -9.4955    -6.1767    -0.7672 H       
  59 H59           -9.4140    -4.4541    -0.3265 H       
@<TRIPOS>BOND
   1    1    2 1
   2    1    7 am
   3    1    6 1
   4    2    3 1
   5    2   36 1
   6    2   37 1
   7    3    4 1
   8    3   38 1
   9    3   39 1
  10    4    5 1
  11    4   15 am
  12    5    6 1
  13    5   23 1
  14    5   40 1
  15    6   41 1
  16    6   42 1
  17    7    8 1
  18    7   14 2
  19    8    9 2
  20    8   10 1
  21    9   12 1
  22   10   11 2
  23   11   12 1
  24   11   43 1
  25   12   13 1
  26   13   18 ar
  27   13   22 ar
  28   15   16 1
  29   15   17 2
  30   16   24 ar
  31   16   29 ar
  32   18   19 ar
  33   18   44 1
  34   19   20 ar
  35   19   25 1
  36   20   21 ar
  37   20   45 1
  38   21   22 ar
  39   21   46 1
  40   22   47 1
  41   23   48 1
  42   23   49 1
  43   23   50 1
  44   24   26 ar
  45   24   51 1
  46   26   27 ar
  47   26   30 1
  48   27   28 ar
  49   27   52 1
  50   28   29 ar
  51   28   53 1
  52   29   54 1
  53   30   31 2
  54   30   34 1
  55   31   32 1
  56   32   33 1
  57   32   35 1
  58   33   34 2
  59   33   55 1
  60   34   56 1
  61   35   57 1
  62   35   58 1
  63   35   59 1

#	End of record

