#	Name: ASD01918005
#	Creating user name:	WinNT
#	Creation time:	15. 06. 2019 20:10

#	Modifying user name:	WinNT
#	Modification time:	15. 06. 2019 20:10

#	Program:	/corina/corina34_cracker 3.40 0067  02.08.2006

@<TRIPOS>MOLECULE
ASD01918005
  41   44    0    0    0
SMALL
NO_CHARGES


@<TRIPOS>ATOM
   1 N1             4.8198    -0.4119    -2.1413 N.ar    
   2 C2             5.2870     0.2860    -3.1576 C.ar    
   3 C3             5.1751     1.6651    -3.1833 C.ar    
   4 C4             4.5622     2.3138    -2.1223 C.ar    
   5 C5             4.0809     1.5454    -1.0668 C.ar    
   6 C6             4.2307     0.1668    -1.1137 C.ar    
   7 O7             3.4733     2.1368    -0.0050 O.3     
   8 C8             3.4545     3.4960     0.0445 C.2     
   9 N9             2.2050     5.5107    -0.0212 N.pl3   
  10 C10            2.2728     4.1508    -0.0651 C.2     
  11 C11            4.6572     4.1965     0.2137 C.2     
  12 C12            4.6347     5.5843     0.2643 C.2     
  13 C13            3.3432     6.2622     0.1374 C.2     
  14 C14            5.8771     6.3538     0.4414 C.2     
  15 N15            5.8352     7.7001     0.4881 N.am    
  16 C16            6.9936     8.4239     0.7608 C.ar    
  17 N17            8.1526     7.7911     0.8658 N.ar    
  18 C18            6.9225     9.8027     0.9143 C.ar    
  19 C19            8.0803    10.5137     1.1855 C.ar    
  20 C20            9.2742     9.8189     1.2942 C.ar    
  21 C21            9.2755     8.4412     1.1239 C.ar    
  22 O22            6.9416     5.7745     0.5456 O.2     
  23 C23            1.1811     6.4047    -0.1046 C.2     
  24 N24            1.6967     7.6022    -0.0061 N.2     
  25 N25            2.9730     7.5273     0.1421 N.2     
  26 Cl26           5.7951     2.5720    -4.5275 Cl      
  27 O27           10.4410     7.7539     1.2236 O.3     
  28 C28           10.3772     6.3383     1.0389 C.3     
  29 H29            5.7637    -0.2253    -3.9808 H       
  30 H30            4.4611     3.3890    -2.1151 H       
  31 H31            3.8607    -0.4387    -0.2995 H       
  32 H32            1.3639     3.5811    -0.1904 H       
  33 H33            5.5915     3.6624     0.3042 H       
  34 H34            4.9983     8.1649     0.3317 H       
  35 H35            5.9759    10.3144     0.8231 H       
  36 H36            8.0529    11.5862     1.3090 H       
  37 H37           10.1942    10.3440     1.5046 H       
  38 H38            0.1352     6.1681    -0.2334 H       
  39 H39            9.7157     5.9035     1.7882 H       
  40 H40            9.9920     6.1188     0.0431 H       
  41 H41           11.3751     5.9128     1.1444 H       
@<TRIPOS>BOND
   1    1    2 ar
   2    1    6 ar
   3    2    3 ar
   4    2   29 1
   5    3    4 ar
   6    3   26 1
   7    4    5 ar
   8    4   30 1
   9    5    6 ar
  10    5    7 1
  11    6   31 1
  12    7    8 1
  13    8   11 1
  14    8   10 2
  15    9   10 1
  16    9   23 1
  17    9   13 1
  18   10   32 1
  19   11   12 2
  20   11   33 1
  21   12   13 1
  22   12   14 1
  23   13   25 2
  24   14   15 am
  25   14   22 2
  26   15   16 1
  27   15   34 1
  28   16   18 ar
  29   16   17 ar
  30   17   21 ar
  31   18   19 ar
  32   18   35 1
  33   19   20 ar
  34   19   36 1
  35   20   21 ar
  36   20   37 1
  37   21   27 1
  38   23   24 2
  39   23   38 1
  40   24   25 1
  41   27   28 1
  42   28   39 1
  43   28   40 1
  44   28   41 1

#	End of record

