#	Name: ASD06170212
#	Creating user name:	WinNT
#	Creation time:	15. 06. 2019 21:05

#	Modifying user name:	WinNT
#	Modification time:	15. 06. 2019 21:05

#	Program:	/corina/corina34_cracker 3.40 0067  02.08.2006

@<TRIPOS>MOLECULE
ASD06170212
  67   71    0    0    0
SMALL
NO_CHARGES


@<TRIPOS>ATOM
   1 C1            -0.0243     1.3101     0.1442 C.2     
   2 C2            -0.0837    -0.0506    -0.2392 C.2     
   3 C3             1.1086    -0.7032    -0.6008 C.2     
   4 C4             2.3138     0.0224    -0.5673 C.2     
   5 C5             2.3102     1.3205    -0.1928 C.2     
   6 N6             1.1583     1.9528     0.1571 N.am    
   7 C7            -1.3628    -0.7663    -0.2587 C.2     
   8 O8            -1.4190    -1.9002    -0.6972 O.2     
   9 N9            -2.4765    -0.1686     0.2091 N.am    
  10 C10            1.2032     3.2997     0.5382 C.ar    
  11 C11            0.5905     4.2661    -0.2485 C.ar    
  12 C12            0.6362     5.5935     0.1302 C.ar    
  13 C13            1.2915     5.9606     1.2912 C.ar    
  14 C14            1.9030     5.0006     2.0766 C.ar    
  15 C15            1.8556     3.6709     1.7065 C.ar    
  16 O16           -1.0436     1.9010     0.4575 O.2     
  17 C17           -3.6669    -0.8892     0.3047 C.ar    
  18 C18           -3.6320    -2.2792     0.2948 C.ar    
  19 C19           -4.8182    -2.9839     0.3906 C.ar    
  20 C20           -6.0086    -2.2682     0.4940 C.ar    
  21 C21           -5.9667    -0.8832     0.4975 C.ar    
  22 N22           -4.8166    -0.2426     0.4094 N.ar    
  23 O23           -7.1976    -2.9207     0.5898 O.3     
  24 N24           -7.9362    -5.0576     4.0391 N.ar    
  25 C25           -6.8539    -4.3223     3.9372 C.ar    
  26 C26           -6.5717    -3.5895     2.7915 C.ar    
  27 C27           -7.4471    -3.6261     1.7202 C.ar    
  28 C28           -8.6094    -4.4212     1.8410 C.ar    
  29 C29           -9.5426    -4.5085     0.7976 C.ar    
  30 C30          -10.6519    -5.2830     0.9441 C.ar    
  31 C31          -10.8756    -5.9958     2.1256 C.ar    
  32 C32           -9.9787    -5.9303     3.1679 C.ar    
  33 C33           -8.8256    -5.1393     3.0424 C.ar    
  34 O34          -11.9910    -6.7614     2.2469 O.3     
  35 C35          -12.8838    -6.7884     1.1314 C.3     
  36 N36            1.0968    -2.0253    -0.9796 N.pl3   
  37 C37            2.3233    -2.6571    -1.4721 C.3     
  38 C38            2.0387    -4.1191    -1.8223 C.3     
  39 O39            1.1188    -4.1770    -2.9143 O.3     
  40 C40            0.7842    -5.5049    -3.3226 C.3     
  41 H41            3.2415    -0.4584    -0.8405 H       
  42 H42            3.2414     1.8671    -0.1705 H       
  43 H43           -2.4503     0.7626     0.4793 H       
  44 H44            0.0791     3.9801    -1.1558 H       
  45 H45            0.1598     6.3456    -0.4813 H       
  46 H46            1.3261     6.9993     1.5851 H       
  47 H47            2.4143     5.2905     2.9826 H       
  48 H48            2.3292     2.9210     2.3228 H       
  49 H49           -2.6905    -2.8020     0.2129 H       
  50 H50           -4.8214    -4.0639     0.3851 H       
  51 H51           -6.8857    -0.3216     0.5769 H       
  52 H52           -6.1636    -4.2861     4.7670 H       
  53 H53           -5.6731    -2.9928     2.7372 H       
  54 H54           -9.3813    -3.9620    -0.1199 H       
  55 H55          -11.3680    -5.3476     0.1382 H       
  56 H56          -10.1611    -6.4842     4.0769 H       
  57 H57          -13.2419    -5.7791     0.9282 H       
  58 H58          -12.3596    -7.1710     0.2557 H       
  59 H59          -13.7307    -7.4355     1.3595 H       
  60 H60            0.2763    -2.5394    -0.9206 H       
  61 H61            2.6709    -2.1315    -2.3616 H       
  62 H62            3.0910    -2.6113    -0.6998 H       
  63 H63            2.9687    -4.6129    -2.1041 H       
  64 H64            1.6077    -4.6227    -0.9570 H       
  65 H65            1.6882    -6.0275    -3.6355 H       
  66 H66            0.3272    -6.0372    -2.4885 H       
  67 H67            0.0822    -5.4630    -4.1553 H       
@<TRIPOS>BOND
   1    1    2 1
   2    1    6 am
   3    1   16 2
   4    2    3 2
   5    2    7 1
   6    3    4 1
   7    3   36 1
   8    4    5 2
   9    4   41 1
  10    5    6 1
  11    5   42 1
  12    6   10 1
  13    7    8 2
  14    7    9 am
  15    9   17 1
  16    9   43 1
  17   10   11 ar
  18   10   15 ar
  19   11   12 ar
  20   11   44 1
  21   12   13 ar
  22   12   45 1
  23   13   14 ar
  24   13   46 1
  25   14   15 ar
  26   14   47 1
  27   15   48 1
  28   17   18 ar
  29   17   22 ar
  30   18   19 ar
  31   18   49 1
  32   19   20 ar
  33   19   50 1
  34   20   21 ar
  35   20   23 1
  36   21   22 ar
  37   21   51 1
  38   23   27 1
  39   24   25 ar
  40   24   33 ar
  41   25   26 ar
  42   25   52 1
  43   26   27 ar
  44   26   53 1
  45   27   28 ar
  46   28   29 ar
  47   28   33 ar
  48   29   30 ar
  49   29   54 1
  50   30   31 ar
  51   30   55 1
  52   31   32 ar
  53   31   34 1
  54   32   33 ar
  55   32   56 1
  56   34   35 1
  57   35   57 1
  58   35   58 1
  59   35   59 1
  60   36   37 1
  61   36   60 1
  62   37   38 1
  63   37   61 1
  64   37   62 1
  65   38   39 1
  66   38   63 1
  67   38   64 1
  68   39   40 1
  69   40   65 1
  70   40   66 1
  71   40   67 1

#	End of record

