#	Name: ASD05062014
#	Creating user name:	WinNT
#	Creation time:	15. 06. 2019 20:56

#	Modifying user name:	WinNT
#	Modification time:	15. 06. 2019 20:56

#	Program:	/corina/corina34_cracker 3.40 0067  02.08.2006

@<TRIPOS>MOLECULE
ASD05062014
  49   52    0    0    0
SMALL
NO_CHARGES


@<TRIPOS>ATOM
   1 C1             0.3036    -1.7749    -1.6042 C.ar    
   2 C2             0.1361    -3.1142    -1.2980 C.ar    
   3 C3            -1.1350    -3.6221    -1.0908 C.ar    
   4 C4            -2.2371    -2.7899    -1.1900 C.ar    
   5 C5            -2.0686    -1.4525    -1.4963 C.ar    
   6 C6            -0.7998    -0.9431    -1.6972 C.ar    
   7 F7            -1.3000    -4.9293    -0.7924 F       
   8 F8             1.5434    -1.2780    -1.8067 F       
   9 C9            -3.6209    -3.3425    -0.9645 C.3     
  10 N10           -3.8759    -3.4483     0.4742 N.am    
  11 C11           -5.0582    -3.9211     0.9160 C.2     
  12 C12           -5.2734    -4.1359     2.3574 C.2     
  13 O13           -5.9474    -4.1705     0.1247 O.2     
  14 C14           -6.5146    -4.5031     2.8400 C.2     
  15 N15           -6.7301    -4.7039     4.1447 N.pl3   
  16 C16           -5.7427    -4.5485     5.0924 C.2     
  17 C17           -4.4745    -4.1914     4.7383 C.2     
  18 C18           -4.1720    -3.9705     3.3145 C.2     
  19 C19           -8.0739    -5.1117     4.6001 C.3     
  20 C20           -7.8867    -6.1262     5.7290 C.3     
  21 N21           -7.1646    -5.5096     6.8269 N.am    
  22 C22           -6.0640    -4.7682     6.5211 C.2     
  23 O23           -9.0692    -6.8092     6.0480 O.3     
  24 C24           -9.6797    -6.5145     7.3029 C.3     
  25 C25           -8.6183    -6.7054     8.3976 C.3     
  26 C26           -7.5783    -5.5952     8.2253 C.3     
  27 O27           -3.0534    -3.6531     2.9456 O.2     
  28 O28           -3.5092    -4.0482     5.6797 O.3     
  29 O29           -5.3637    -4.2997     7.3976 O.2     
  30 H30           -7.2182    -6.8878     5.3274 H       
  31 C31           -6.3592    -5.9018     9.0975 C.3     
  32 H32            0.9963    -3.7627    -1.2212 H       
  33 H33           -2.9289    -0.8043    -1.5741 H       
  34 H34           -0.6694     0.1019    -1.9364 H       
  35 H35           -4.3561    -2.6763    -1.4158 H       
  36 H36           -3.6967    -4.3296    -1.4206 H       
  37 H37           -3.1940    -3.1781     1.1089 H       
  38 H38           -7.3322    -4.6310     2.1459 H       
  39 H39           -8.6193    -4.2432     4.9693 H       
  40 H40           -8.6206    -5.5708     3.7764 H       
  41 H41          -10.0340    -5.4837     7.3080 H       
  42 H42          -10.5147    -7.1934     7.4757 H       
  43 H43           -9.0824    -6.6291     9.3809 H       
  44 H44           -8.1423    -7.6796     8.2862 H       
  45 H45           -8.0110    -4.6433     8.5334 H       
  46 H46           -2.6471    -3.7932     5.3234 H       
  47 H47           -5.8157    -6.7482     8.6776 H       
  48 H48           -5.7060    -5.0298     9.1285 H       
  49 H49           -6.6875    -6.1460    10.1079 H       
@<TRIPOS>BOND
   1    1    2 ar
   2    1    8 1
   3    1    6 ar
   4    2    3 ar
   5    2   32 1
   6    3    4 ar
   7    3    7 1
   8    4    5 ar
   9    4    9 1
  10    5    6 ar
  11    5   33 1
  12    6   34 1
  13    9   10 1
  14    9   35 1
  15    9   36 1
  16   10   11 am
  17   10   37 1
  18   11   12 1
  19   11   13 2
  20   12   14 2
  21   12   18 1
  22   14   15 1
  23   14   38 1
  24   15   16 1
  25   15   19 1
  26   16   17 2
  27   16   22 1
  28   17   18 1
  29   17   28 1
  30   18   27 2
  31   19   20 1
  32   19   39 1
  33   19   40 1
  34   20   21 1
  35   20   23 1
  36   20   30 1
  37   21   22 am
  38   21   26 1
  39   22   29 2
  40   23   24 1
  41   24   25 1
  42   24   41 1
  43   24   42 1
  44   25   26 1
  45   25   43 1
  46   25   44 1
  47   26   31 1
  48   26   45 1
  49   28   46 1
  50   31   47 1
  51   31   48 1
  52   31   49 1

#	End of record

