#	Name: ASD03091257
#	Creating user name:	WinNT
#	Creation time:	15. 06. 2019 20:30

#	Modifying user name:	WinNT
#	Modification time:	15. 06. 2019 20:30

#	Program:	/corina/corina34_cracker 3.40 0067  02.08.2006

@<TRIPOS>MOLECULE
ASD03091257
  60   64    0    0    0
SMALL
NO_CHARGES


@<TRIPOS>ATOM
   1 N1            -0.0723     1.2786    -0.0704 N.2     
   2 C2             0.0165    -0.0244    -0.0305 C.2     
   3 N3             1.2101    -0.6904     0.0456 N.am    
   4 C4             2.3759    -0.0038     0.0834 C.2     
   5 C5             2.3000     1.4645     0.0392 C.ar    
   6 C6             3.4427     2.2596     0.0726 C.ar    
   7 C7             3.3125     3.6378     0.0277 C.ar    
   8 C8             2.0497     4.2257    -0.0500 C.ar    
   9 C9             0.9207     3.4591    -0.0830 C.ar    
  10 C10            1.0225     2.0650    -0.0391 C.ar    
  11 O11            3.4463    -0.5794     0.1519 O.2     
  12 C12           -1.2320    -0.8175    -0.0691 C.ar    
  13 C13           -2.4649    -0.1708     0.0095 C.ar    
  14 C14           -3.6244    -0.9268    -0.0283 C.ar    
  15 C15           -3.5129    -2.3048    -0.1435 C.ar    
  16 C16           -2.2562    -2.8807    -0.2167 C.ar    
  17 N17           -1.1695    -2.1389    -0.1837 N.ar    
  18 C18           -2.1309    -4.3773    -0.3414 C.3     
  19 C19            1.2257    -2.1547     0.0867 C.3     
  20 C20            1.1331    -2.7060    -1.3375 C.3     
  21 O21            2.3038    -2.3358    -2.0686 O.3     
  22 C22            2.3180    -2.8037    -3.4188 C.3     
  23 N23            7.1783     5.3369    -0.6773 N.3     
  24 C24            6.8980     4.4911     0.4930 C.3     
  25 C25            5.6629     3.6365     0.2548 C.3     
  26 N26            4.4528     4.4443     0.0611 N.3     
  27 C27            4.5608     5.2544    -1.1603 C.3     
  28 C28            5.0884     6.6429    -0.8314 C.3     
  29 C29            6.5666     6.6614    -0.4981 C.3     
  30 C30            6.8928     4.7548    -1.9712 C.3     
  31 C31            5.4069     4.5108    -2.1776 C.3     
  32 H32            4.4210     1.8060     0.1331 H       
  33 H33            1.9642     5.3017    -0.0843 H       
  34 H34           -0.0501     3.9287    -0.1426 H       
  35 H35           -2.5147     0.9043     0.0990 H       
  36 H36           -4.5937    -0.4543     0.0309 H       
  37 H37           -4.3983    -2.9225    -0.1753 H       
  38 H38           -2.1221    -4.6546    -1.3955 H       
  39 H39           -1.2032    -4.7046     0.1281 H       
  40 H40           -2.9766    -4.8552     0.1530 H       
  41 H41            2.1523    -2.4954     0.5486 H       
  42 H42            0.3766    -2.5109     0.6700 H       
  43 H43            1.0552    -3.7926    -1.3022 H       
  44 H44            0.2520    -2.2943    -1.8299 H       
  45 H45            2.2647    -3.8924    -3.4266 H       
  46 H46            1.4615    -2.3941    -3.9543 H       
  47 H47            3.2387    -2.4815    -3.9053 H       
  48 H48            7.7533     3.8418     0.6799 H       
  49 H49            6.7330     5.1259     1.3635 H       
  50 H50            5.8236     3.0231    -0.6318 H       
  51 H51            5.5161     2.9811     1.1133 H       
  52 H52            3.5617     5.3631    -1.5822 H       
  53 H53            4.9151     7.2945    -1.6879 H       
  54 H54            4.5331     7.0350     0.0206 H       
  55 H55            6.6938     6.9749     0.5380 H       
  56 H56            7.0693     7.3766    -1.1493 H       
  57 H57            7.2517     5.4289    -2.7490 H       
  58 H58            7.4221     3.8058    -2.0564 H       
  59 H59            5.2079     3.4426    -2.0909 H       
  60 H60            5.1293     4.8411    -3.1785 H       
@<TRIPOS>BOND
   1    1    2 2
   2    1   10 1
   3    2    3 1
   4    2   12 1
   5    3    4 am
   6    3   19 1
   7    4    5 1
   8    4   11 2
   9    5    6 ar
  10    5   10 ar
  11    6    7 ar
  12    6   32 1
  13    7    8 ar
  14    7   26 1
  15    8    9 ar
  16    8   33 1
  17    9   10 ar
  18    9   34 1
  19   12   13 ar
  20   12   17 ar
  21   13   14 ar
  22   13   35 1
  23   14   15 ar
  24   14   36 1
  25   15   16 ar
  26   15   37 1
  27   16   17 ar
  28   16   18 1
  29   18   38 1
  30   18   39 1
  31   18   40 1
  32   19   20 1
  33   19   41 1
  34   19   42 1
  35   20   21 1
  36   20   43 1
  37   20   44 1
  38   21   22 1
  39   22   45 1
  40   22   46 1
  41   22   47 1
  42   23   24 1
  43   23   29 1
  44   23   30 1
  45   24   25 1
  46   24   48 1
  47   24   49 1
  48   25   26 1
  49   25   50 1
  50   25   51 1
  51   26   27 1
  52   27   28 1
  53   27   31 1
  54   27   52 1
  55   28   29 1
  56   28   53 1
  57   28   54 1
  58   29   55 1
  59   29   56 1
  60   30   31 1
  61   30   57 1
  62   30   58 1
  63   31   59 1
  64   31   60 1

#	End of record

