#	Name: ASD01230402
#	Creating user name:	WinNT
#	Creation time:	15. 06. 2019 19:14

#	Modifying user name:	WinNT
#	Modification time:	15. 06. 2019 19:14

#	Program:	/corina/corina34_cracker 3.40 0067  02.08.2006

@<TRIPOS>MOLECULE
ASD01230402
  29   30    0    0    0
SMALL
NO_CHARGES


@<TRIPOS>ATOM
   1 C1            -0.0189     1.2892    -0.6184 C.ar    
   2 C2             0.0013    -0.0336    -0.2138 C.ar    
   3 C3             1.2070    -0.6788    -0.0181 C.ar    
   4 C4             2.3982     0.0008    -0.2276 C.ar    
   5 C5             2.3757     1.3272    -0.6333 C.ar    
   6 C6             1.1678     1.9687    -0.8278 C.ar    
   7 O7             3.5856    -0.6320    -0.0353 O.3     
   8 C8             4.7693     0.1598    -0.1534 C.3     
   9 C9             5.8937    -0.4788     0.6643 C.3     
  10 C10            7.1611     0.3689     0.5378 C.3     
  11 C11            7.5792     0.4451    -0.9320 C.3     
  12 C12            6.4547     1.0838    -1.7496 C.3     
  13 C13            5.1873     0.2360    -1.6232 C.3     
  14 Br14          -1.6709     2.1674    -0.8930 Br      
  15 H15           -0.9263    -0.5622    -0.0505 H       
  16 H16            1.2224    -1.7113     0.2980 H       
  17 H17            3.3019     1.8581    -0.7966 H       
  18 H18            1.1499     3.0012    -1.1439 H       
  19 H19            4.5732     1.1645     0.2212 H       
  20 H20            5.5959    -0.5331     1.7114 H       
  21 H21            6.0898    -1.4835     0.2898 H       
  22 H22            6.9650     1.3736     0.9124 H       
  23 H23            7.9622    -0.0861     1.1204 H       
  24 H24            8.4821     1.0491    -1.0220 H       
  25 H25            7.7753    -0.5596    -1.3065 H       
  26 H26            6.2586     2.0884    -1.3751 H       
  27 H27            6.7526     1.1380    -2.7967 H       
  28 H28            5.3834    -0.7687    -1.9977 H       
  29 H29            4.3862     0.6910    -2.2057 H       
@<TRIPOS>BOND
   1    1    2 ar
   2    1    6 ar
   3    1   14 1
   4    2    3 ar
   5    2   15 1
   6    3    4 ar
   7    3   16 1
   8    4    5 ar
   9    4    7 1
  10    5    6 ar
  11    5   17 1
  12    6   18 1
  13    7    8 1
  14    8    9 1
  15    8   13 1
  16    8   19 1
  17    9   10 1
  18    9   20 1
  19    9   21 1
  20   10   11 1
  21   10   22 1
  22   10   23 1
  23   11   12 1
  24   11   24 1
  25   11   25 1
  26   12   13 1
  27   12   26 1
  28   12   27 1
  29   13   28 1
  30   13   29 1

#	End of record

