#	Name: ASD03320058
#	Creating user name:	WinNT
#	Creation time:	15. 06. 2019 20:36

#	Modifying user name:	WinNT
#	Modification time:	15. 06. 2019 20:36

#	Program:	/corina/corina34_cracker 3.40 0067  02.08.2006

@<TRIPOS>MOLECULE
ASD03320058
  65   68    0    0    0
SMALL
NO_CHARGES


@<TRIPOS>ATOM
   1 N1            -0.1495     1.3696     0.0735 N.3     
   2 C2             0.0853    -0.0770    -0.0884 C.3     
   3 C3             1.6112    -0.3011    -0.0360 C.3     
   4 C4             2.1230     0.9533     0.7197 C.3     
   5 C5             1.1583     2.0477     0.1988 C.3     
   6 O6             1.9274    -1.5103     0.7031 O.3     
   7 C7             3.0405    -2.1697     0.3454 C.2     
   8 C8            -0.8706     1.8769    -0.9915 C.ar    
   9 C9            -1.1971     3.2442    -1.0220 C.ar    
  10 C10           -1.9235     3.7402    -2.1009 C.ar    
  11 C11           -2.2987     2.8479    -3.1141 C.ar    
  12 C12           -1.9341     1.5042    -3.0071 C.ar    
  13 N13           -1.2417     1.0706    -1.9746 N.ar    
  14 N14           -0.7789     3.8468     1.4063 N.pl3   
  15 N15           -0.3054     4.9719     2.0934 N.2     
  16 C16           -0.0277     5.9061     1.2199 C.2     
  17 C17           -0.3106     5.4199    -0.0567 C.2     
  18 C18           -0.7756     4.1416     0.0755 C.2     
  19 C19           -3.0699     3.3221    -4.2792 C.2     
  20 N20           -3.4264     2.4566    -5.2489 N.am    
  21 O21           -3.3838     4.4938    -4.3645 O.2     
  22 C22           -4.2408     2.8846    -6.3047 C.ar    
  23 C23           -4.1052     4.1712    -6.8092 C.ar    
  24 C24           -4.9083     4.5924    -7.8505 C.ar    
  25 C25           -5.8504     3.7305    -8.3927 C.ar    
  26 C26           -5.9868     2.4452    -7.8890 C.ar    
  27 C27           -5.1805     2.0207    -6.8515 C.ar    
  28 O28           -6.6408     4.1459    -9.4182 O.3     
  29 C29           -7.5892     3.2064    -9.9279 C.3     
  30 F30           -6.9161     2.0770   -10.4059 F       
  31 F31           -8.4668     2.8285    -8.9061 F       
  32 Cl32          -8.5223     3.9636   -11.2721 Cl      
  33 C33            3.4329    -3.4329     1.0674 C.3     
  34 O34            3.7279    -1.7503    -0.5555 O.2     
  35 C35            4.1159    -3.0740     2.3886 C.3     
  36 N36            4.3601    -4.2070     0.2312 N.3     
  37 C37            4.5143    -4.3566     3.1216 C.3     
  38 C38            5.3663    -2.2388     2.1059 C.3     
  39 H39           -0.3979    -0.6240     0.7211 H       
  40 H40           -0.3057    -0.4108    -1.0496 H       
  41 H41            2.0294    -0.3425    -1.0418 H       
  42 H42            2.0244     0.8269     1.7978 H       
  43 H43            3.1539     1.1797     0.4473 H       
  44 H44            1.4899     2.4149    -0.7724 H       
  45 H45            1.0935     2.8680     0.9137 H       
  46 H46           -2.1912     4.7851    -2.1554 H       
  47 H47           -2.2206     0.8115    -3.7846 H       
  48 H48           -1.0555     3.0072     1.8055 H       
  49 H49            0.3558     6.8894     1.4491 H       
  50 H50           -0.1852     5.9583    -0.9846 H       
  51 H51           -3.1189     1.5372    -5.2155 H       
  52 H52           -3.3720     4.8424    -6.3869 H       
  53 H53           -4.8031     5.5931    -8.2427 H       
  54 H54           -6.7207     1.7749    -8.3114 H       
  55 H55           -5.2835     1.0184    -6.4626 H       
  56 H56            2.5421    -4.0279     1.2688 H       
  57 H57            3.4279    -2.4997     3.0090 H       
  58 H58            3.9115    -4.5113    -0.6198 H       
  59 H59            5.1946    -3.6766     0.0304 H       
  60 H60            5.2022    -4.9309     2.5012 H       
  61 H61            5.0009    -4.1009     4.0629 H       
  62 H62            3.6235    -4.9516     3.3230 H       
  63 H63            6.0543    -2.8132     1.4855 H       
  64 H64            5.0825    -1.3251     1.5837 H       
  65 H65            5.8529    -1.9832     3.0472 H       
@<TRIPOS>BOND
   1    1    2 1
   2    1    5 1
   3    1    8 1
   4    2    3 1
   5    2   39 1
   6    2   40 1
   7    3    4 1
   8    3    6 1
   9    3   41 1
  10    4    5 1
  11    4   42 1
  12    4   43 1
  13    5   44 1
  14    5   45 1
  15    6    7 1
  16    7   33 1
  17    7   34 2
  18    8    9 ar
  19    8   13 ar
  20    9   10 ar
  21    9   18 1
  22   10   11 ar
  23   10   46 1
  24   11   12 ar
  25   11   19 1
  26   12   13 ar
  27   12   47 1
  28   14   15 1
  29   14   18 1
  30   14   48 1
  31   15   16 2
  32   16   17 1
  33   16   49 1
  34   17   18 2
  35   17   50 1
  36   19   20 am
  37   19   21 2
  38   20   22 1
  39   20   51 1
  40   22   23 ar
  41   22   27 ar
  42   23   24 ar
  43   23   52 1
  44   24   25 ar
  45   24   53 1
  46   25   26 ar
  47   25   28 1
  48   26   27 ar
  49   26   54 1
  50   27   55 1
  51   28   29 1
  52   29   30 1
  53   29   31 1
  54   29   32 1
  55   33   35 1
  56   33   36 1
  57   33   56 1
  58   35   37 1
  59   35   38 1
  60   35   57 1
  61   36   58 1
  62   36   59 1
  63   37   60 1
  64   37   61 1
  65   37   62 1
  66   38   63 1
  67   38   64 1
  68   38   65 1

#	End of record

