#	Name: ASD01912840
#	Creating user name:	WinNT
#	Creation time:	15. 06. 2019 20:00

#	Modifying user name:	WinNT
#	Modification time:	15. 06. 2019 20:00

#	Program:	/corina/corina34_cracker 3.40 0067  02.08.2006

@<TRIPOS>MOLECULE
ASD01912840
  46   49    0    0    0
SMALL
NO_CHARGES


@<TRIPOS>ATOM
   1 C1            -0.0158     1.3737     0.0394 C.2     
   2 N2             0.0049     0.0029     0.0542 N.pl3   
   3 C3            -1.1986    -0.6868     0.0672 C.2     
   4 C4            -2.3601    -0.0463     0.0650 C.2     
   5 N5            -2.4351     1.3344     0.0503 N.am    
   6 C6            -1.3023     2.0720     0.0433 C.2     
   7 C7             1.3016     1.7923     0.0284 C.2     
   8 C8             2.0569     0.6207     0.0375 C.2     
   9 N9             1.2278    -0.3959     0.0526 N.2     
  10 O10           -1.3510     3.2887     0.0303 O.2     
  11 C11           -3.6792     1.9658     0.0481 C.ar    
  12 C12            3.5616     0.5367     0.0311 C.3     
  13 O13            4.1122     1.8552     0.0140 O.3     
  14 C14            5.4673     1.9578     0.0063 C.ar    
  15 C15            6.0694     3.2076    -0.0103 C.ar    
  16 C16            7.4471     3.3093    -0.0182 C.ar    
  17 C17            8.2258     2.1668    -0.0096 C.ar    
  18 C18            7.6282     0.9201     0.0065 C.ar    
  19 C19            6.2509     0.8131     0.0207 C.ar    
  20 N20           -3.7450     3.2843    -0.0663 N.ar    
  21 C21           -4.8343     1.2065     0.1600 C.ar    
  22 C22           -6.0688     1.8505     0.1559 C.ar    
  23 C23           -6.0902     3.2414     0.0385 C.ar    
  24 C24           -4.8988     3.9255    -0.0738 C.ar    
  25 N25           -7.2520     1.1256     0.2655 N.pl3   
  26 C26           -7.2170    -0.3390     0.2595 C.3     
  27 C27           -8.5324     1.8272     0.3869 C.3     
  28 H28           -1.1896    -1.7667     0.0789 H       
  29 H29           -3.2748    -0.6204     0.0747 H       
  30 H30            1.6671     2.8085     0.0155 H       
  31 H31            3.9000     0.0131     0.9252 H       
  32 H32            3.8914    -0.0063    -0.8547 H       
  33 H33            5.4616     4.1003    -0.0174 H       
  34 H34            7.9163     4.2819    -0.0315 H       
  35 H35            9.3027     2.2483    -0.0157 H       
  36 H36            8.2386     0.0291     0.0125 H       
  37 H37            5.7846    -0.1609     0.0333 H       
  38 H38           -4.7772     0.1316     0.2486 H       
  39 H39           -7.0293     3.7748     0.0314 H       
  40 H40           -4.9093     5.0016    -0.1648 H       
  41 H41           -7.1123    -0.7041     1.2812 H       
  42 H42           -8.1421    -0.7228    -0.1705 H       
  43 H43           -6.3705    -0.6797    -0.3366 H       
  44 H44           -8.3530     2.8993     0.4674 H       
  45 H45           -9.1419     1.6259    -0.4940 H       
  46 H46           -9.0548     1.4784     1.2777 H       
@<TRIPOS>BOND
   1    1    2 1
   2    1    7 2
   3    1    6 1
   4    2    3 1
   5    2    9 1
   6    3    4 2
   7    3   28 1
   8    4    5 1
   9    4   29 1
  10    5    6 am
  11    5   11 1
  12    6   10 2
  13    7    8 1
  14    7   30 1
  15    8    9 2
  16    8   12 1
  17   11   20 ar
  18   11   21 ar
  19   12   13 1
  20   12   31 1
  21   12   32 1
  22   13   14 1
  23   14   15 ar
  24   14   19 ar
  25   15   16 ar
  26   15   33 1
  27   16   17 ar
  28   16   34 1
  29   17   18 ar
  30   17   35 1
  31   18   19 ar
  32   18   36 1
  33   19   37 1
  34   20   24 ar
  35   21   22 ar
  36   21   38 1
  37   22   23 ar
  38   22   25 1
  39   23   24 ar
  40   23   39 1
  41   24   40 1
  42   25   26 1
  43   25   27 1
  44   26   41 1
  45   26   42 1
  46   26   43 1
  47   27   44 1
  48   27   45 1
  49   27   46 1

#	End of record

