#	Name: ASD05740103
#	Creating user name:	WinNT
#	Creation time:	15. 06. 2019 21:02

#	Modifying user name:	WinNT
#	Modification time:	15. 06. 2019 21:02

#	Program:	/corina/corina34_cracker 3.40 0067  02.08.2006

@<TRIPOS>MOLECULE
ASD05740103
  55   56    0    0    0
SMALL
NO_CHARGES


@<TRIPOS>ATOM
   1 C1            -0.0166     1.3766     0.0096 C.ar    
   2 C2            -2.9614    -0.4714     3.3956 C.2     
   3 C3            -2.4455    -1.5759     4.0524 C.2     
   4 C4            -2.5839    -0.2034     2.0628 C.2     
   5 C5            -1.7110    -1.0393     1.4337 C.2     
   6 C6            -1.2058    -2.1508     2.1273 C.2     
   7 O7            -1.5735    -2.3927     3.3919 O.3     
   8 C8            -1.2931    -0.7744     0.0102 C.3     
   9 C9             0.0021    -0.0041     0.0020 C.ar    
  10 C10            1.2082    -0.6808    -0.0136 C.ar    
  11 O11           -0.4245    -2.9042     1.5718 O.2     
  12 C12            1.1779     2.0860     0.0020 C.ar    
  13 C13            2.3873     1.4033    -0.0132 C.ar    
  14 C14            2.3988     0.0221    -0.0207 C.ar    
  15 N15            1.1626     3.4826     0.0092 N.am    
  16 S16            2.1576     4.3268    -1.0104 S.o2    
  17 O17            1.8839     5.7036    -0.7893 O.2     
  18 O18            3.4526     3.7593    -0.8683 O.2     
  19 C19           -2.9171    -1.6988     5.3607 C.2     
  20 C20           -3.7698    -0.7550     5.7609 C.2     
  21 S21           -4.0560     0.3965     4.4670 S.3     
  22 N22           -2.5177    -2.7540     6.2047 N.pl3   
  23 C23           -3.1415     0.9965     1.3414 C.3     
  24 C24           -4.4968     0.6385     0.7282 C.3     
  25 C25           -3.0417    -2.8383     7.5702 C.3     
  26 N26            1.6691     3.9956    -2.5576 N.am    
  27 C27            0.3450     4.4242    -3.0153 C.3     
  28 H28           -0.9588     1.9045     0.0169 H       
  29 H29           -1.1555    -1.7221    -0.5104 H       
  30 H30           -2.0653    -0.1923    -0.4928 H       
  31 H31            1.2200    -1.7607    -0.0199 H       
  32 H32            3.3177     1.9517    -0.0191 H       
  33 H33            3.3389    -0.5094    -0.0322 H       
  34 H34            0.5691     3.9581     0.6114 H       
  35 H35           -4.2230    -0.7080     6.7401 H       
  36 H36           -1.8957    -3.4247     5.8817 H       
  37 H37           -3.2674     1.8182     2.0464 H       
  38 H38           -2.4535     1.2977     0.5515 H       
  39 H39           -4.3709    -0.1832     0.0232 H       
  40 H40           -5.1849     0.3373     1.5181 H       
  41 H41           -4.9001     1.5064     0.2064 H       
  42 H42           -2.7641    -1.9402     8.1220 H       
  43 H43           -4.1279    -2.9237     7.5379 H       
  44 H44           -2.6230    -3.7137     8.0667 H       
  45 H45            2.2596     3.5178    -3.1609 H       
  46 H46            0.2028     4.1195    -4.0521 H       
  47 H47           -0.4215     3.9628    -2.3926 H       
  48 H48            0.2687     5.5090    -2.9416 H       
  49 C49            8.9798    13.3729    14.9903 C.3     
  50 N50            8.9996    11.9081    14.9822 N.2     
  51 C51            9.5403    11.2955    14.0362 C.1     
  52 O52           10.0629    10.7036    13.1220 O.2     
  53 H53           10.0023    13.7502    14.9825 H       
  54 H54            8.4526    13.7340    14.1072 H       
  55 H55            8.4696    13.7244    15.8871 H       
@<TRIPOS>BOND
   1    1    9 ar
   2    1   12 ar
   3    1   28 1
   4    2    3 2
   5    2    4 1
   6    2   21 1
   7    3   19 1
   8    3    7 1
   9    4    5 2
  10    4   23 1
  11    5    6 1
  12    5    8 1
  13    6    7 1
  14    6   11 2
  15    8    9 1
  16    8   29 1
  17    8   30 1
  18    9   10 ar
  19   10   14 ar
  20   10   31 1
  21   12   13 ar
  22   12   15 1
  23   13   14 ar
  24   13   32 1
  25   14   33 1
  26   15   16 am
  27   15   34 1
  28   16   17 2
  29   16   18 2
  30   16   26 am
  31   19   20 2
  32   19   22 1
  33   20   21 1
  34   20   35 1
  35   22   25 1
  36   22   36 1
  37   23   24 1
  38   23   37 1
  39   23   38 1
  40   24   39 1
  41   24   40 1
  42   24   41 1
  43   25   42 1
  44   25   43 1
  45   25   44 1
  46   26   27 1
  47   26   45 1
  48   27   46 1
  49   27   47 1
  50   27   48 1
  51   49   50 1
  52   49   53 1
  53   49   54 1
  54   49   55 1
  55   50   51 2
  56   51   52 2

#	End of record

