#	Name: ASD01840040
#	Creating user name:	WinNT
#	Creation time:	15. 06. 2019 19:37

#	Modifying user name:	WinNT
#	Modification time:	15. 06. 2019 19:37

#	Program:	/corina/corina34_cracker 3.40 0067  02.08.2006

@<TRIPOS>MOLECULE
ASD01840040
  37   39    0    0    0
SMALL
NO_CHARGES


@<TRIPOS>ATOM
   1 C1             0.9196     1.7993    -1.1883 C.ar    
   2 C2             1.2393     0.6285    -1.8404 C.ar    
   3 N3             2.4465     0.1050    -1.7141 N.ar    
   4 N4             3.3615     0.6433    -0.9978 N.ar    
   5 C5             3.1646     1.7778    -0.3221 C.ar    
   6 C6             1.9157     2.4098    -0.3922 C.ar    
   7 S7             4.2484     2.6962     0.7134 S.3     
   8 C8             3.0296     3.9122     1.0425 C.2     
   9 C9             1.8678     3.6265     0.3970 C.2     
  10 C10           -0.4494     2.4142    -1.3245 C.3     
  11 N11            0.7386     4.4264     0.4844 N.pl3   
  12 C12            3.2288     5.0437     1.8731 C.2     
  13 C13            4.4896     5.1928     2.6283 C.ar    
  14 O14            2.3602     5.8930     1.9641 O.2     
  15 C15            4.9824     6.4664     2.9243 C.ar    
  16 C16            6.1579     6.6012     3.6289 C.ar    
  17 C17            6.8542     5.4725     4.0451 C.ar    
  18 C18            6.3674     4.2039     3.7526 C.ar    
  19 C19            5.1897     4.0606     3.0534 C.ar    
  20 C20            0.2092    -0.0577    -2.7001 C.3     
  21 O21            8.0129     5.6095     4.7386 O.3     
  22 C22            8.6773     4.4083     5.1356 C.3     
  23 H23           -1.0763     2.0933    -0.4926 H       
  24 H24           -0.3622     3.5007    -1.3158 H       
  25 H25           -0.9000     2.0934    -2.2638 H       
  26 H26           -0.1304     4.0662     0.2478 H       
  27 H27            0.8176     5.3462     0.7821 H       
  28 H28            4.4423     7.3439     2.6007 H       
  29 H29            6.5394     7.5852     3.8582 H       
  30 H30            6.9113     3.3293     4.0777 H       
  31 H31            4.8099     3.0746     2.8301 H       
  32 H32            0.2800     0.3172    -3.7211 H       
  33 H33            0.3892    -1.1327    -2.6945 H       
  34 H34           -0.7866     0.1460    -2.3064 H       
  35 H35            8.0187     3.8242     5.7783 H       
  36 H36            8.9327     3.8249     4.2509 H       
  37 H37            9.5874     4.6594     5.6803 H       
@<TRIPOS>BOND
   1    1    2 ar
   2    1    6 ar
   3    1   10 1
   4    2    3 ar
   5    2   20 1
   6    3    4 ar
   7    4    5 ar
   8    5    7 1
   9    5    6 ar
  10    6    9 1
  11    7    8 1
  12    8    9 2
  13    8   12 1
  14    9   11 1
  15   10   23 1
  16   10   24 1
  17   10   25 1
  18   11   26 1
  19   11   27 1
  20   12   13 1
  21   12   14 2
  22   13   15 ar
  23   13   19 ar
  24   15   16 ar
  25   15   28 1
  26   16   17 ar
  27   16   29 1
  28   17   18 ar
  29   17   21 1
  30   18   19 ar
  31   18   30 1
  32   19   31 1
  33   20   32 1
  34   20   33 1
  35   20   34 1
  36   21   22 1
  37   22   35 1
  38   22   36 1
  39   22   37 1

#	End of record

