#	Name: ASD00100041
#	Creating user name:	WinNT
#	Creation time:	15. 06. 2019 18:30

#	Modifying user name:	WinNT
#	Modification time:	15. 06. 2019 18:30

#	Program:	/corina/corina34_cracker 3.40 0067  02.08.2006

@<TRIPOS>MOLECULE
ASD00100041
  65   68    0    0    0
SMALL
NO_CHARGES


@<TRIPOS>ATOM
   1 S1            -0.0172     1.4168     0.0098 S.o2    
   2 O2             0.0021    -0.0041     0.0020 O.2     
   3 O3             1.1617     2.2101     0.0028 O.2     
   4 N4            -0.9002     1.8797    -1.3124 N.am    
   5 N5            -0.8748     1.8654     1.3536 N.am    
   6 C6            -1.8427     0.9400     1.9475 C.3     
   7 C7            -0.6655     3.1878     1.9484 C.3     
   8 C8            -1.1366     3.3017    -1.5741 C.3     
   9 C9            -1.1437     3.5481    -3.0841 C.3     
  10 C10           -1.3906     5.0331    -3.3573 C.3     
  11 C11           -2.7416     5.4425    -2.7675 C.3     
  12 C12           -2.7346     5.1961    -1.2574 C.3     
  13 C13           -2.4877     3.7111    -0.9842 C.3     
  14 C14           -2.9885     6.9275    -3.0407 C.3     
  15 C15           -4.3910     7.3079    -2.5620 C.3     
  16 N16           -4.6281     8.7337    -2.8243 N.3     
  17 C17           -6.0365     9.0831    -2.5995 C.3     
  18 C18           -6.2768    10.5347    -3.0203 C.3     
  19 C19           -5.3664    11.4553    -2.2030 C.3     
  20 C20           -3.9084    11.0395    -2.4170 C.3     
  21 C21           -3.7368     9.5732    -2.0137 C.3     
  22 O22           -5.6181    14.6856    -3.9128 O.3     
  23 C23           -5.3436    13.3698    -3.8840 C.2     
  24 C24           -5.5551    12.8806    -2.6547 C.2     
  25 C25           -6.0081    14.0120    -1.8365 C.ar    
  26 C26           -6.0226    15.1190    -2.7018 C.ar    
  27 C27           -6.3837    14.1610    -0.5026 C.ar    
  28 C28           -6.7690    15.3995    -0.0384 C.ar    
  29 C29           -6.7836    16.4928    -0.8920 C.ar    
  30 C30           -6.4144    16.3588    -2.2135 C.ar    
  31 H31           -1.2609     1.2094    -1.9136 H       
  32 H32           -1.3442     0.3234     2.6954 H       
  33 H33           -2.6448     1.5070     2.4201 H       
  34 H34           -2.2594     0.3010     1.1690 H       
  35 H35            0.0857     3.7298     1.3739 H       
  36 H36           -1.6028     3.7439     1.9367 H       
  37 H37           -0.3235     3.0735     2.9770 H       
  38 H38           -0.3449     3.8924    -1.1132 H       
  39 H39           -0.1812     3.2564    -3.5043 H       
  40 H40           -1.9354     2.9573    -3.5449 H       
  41 H41           -0.5989     5.6238    -2.8965 H       
  42 H42           -1.3956     5.2086    -4.4331 H       
  43 H43           -3.5333     4.8517    -3.2283 H       
  44 H44           -1.9429     5.7868    -0.7966 H       
  45 H45           -3.6971     5.4877    -0.8372 H       
  46 H46           -3.2793     3.1203    -1.4450 H       
  47 H47           -2.4826     3.5355     0.0916 H       
  48 H48           -2.2483     7.5232    -2.5066 H       
  49 H49           -2.9055     7.1188    -4.1106 H       
  50 H50           -5.1313     6.7122    -3.0961 H       
  51 H51           -4.4740     7.1166    -1.4921 H       
  52 H52           -6.6730     8.4237    -3.1897 H       
  53 H53           -6.2752     8.9672    -1.5423 H       
  54 H54           -6.0516    10.6482    -4.0808 H       
  55 H55           -7.3187    10.7985    -2.8388 H       
  56 H56           -5.6178    11.3710    -1.1457 H       
  57 H57           -3.6459    11.1609    -3.4680 H       
  58 H58           -3.2582    11.6639    -1.8044 H       
  59 H59           -3.9862     9.4550    -0.9592 H       
  60 H60           -2.7029     9.2699    -2.1784 H       
  61 H61           -5.0020    12.7909    -4.7294 H       
  62 H62           -6.3731    13.3106     0.1631 H       
  63 H63           -7.0612    15.5197     0.9944 H       
  64 H64           -7.0877    17.4591    -0.5176 H       
  65 H65           -6.4296    17.2173    -2.8686 H       
@<TRIPOS>BOND
   1    1    2 2
   2    1    3 2
   3    1    4 am
   4    1    5 am
   5    4    8 1
   6    4   31 1
   7    5    6 1
   8    5    7 1
   9    6   32 1
  10    6   33 1
  11    6   34 1
  12    7   35 1
  13    7   36 1
  14    7   37 1
  15    8    9 1
  16    8   13 1
  17    8   38 1
  18    9   10 1
  19    9   39 1
  20    9   40 1
  21   10   11 1
  22   10   41 1
  23   10   42 1
  24   11   12 1
  25   11   14 1
  26   11   43 1
  27   12   13 1
  28   12   44 1
  29   12   45 1
  30   13   46 1
  31   13   47 1
  32   14   15 1
  33   14   48 1
  34   14   49 1
  35   15   16 1
  36   15   50 1
  37   15   51 1
  38   16   17 1
  39   16   21 1
  40   17   18 1
  41   17   52 1
  42   17   53 1
  43   18   19 1
  44   18   54 1
  45   18   55 1
  46   19   20 1
  47   19   24 1
  48   19   56 1
  49   20   21 1
  50   20   57 1
  51   20   58 1
  52   21   59 1
  53   21   60 1
  54   22   23 1
  55   22   26 1
  56   23   24 2
  57   23   61 1
  58   24   25 1
  59   25   26 ar
  60   25   27 ar
  61   26   30 ar
  62   27   28 ar
  63   27   62 1
  64   28   29 ar
  65   28   63 1
  66   29   30 ar
  67   29   64 1
  68   30   65 1

#	End of record

