#	Name: ASD05143320
#	Creating user name:	WinNT
#	Creation time:	15. 06. 2019 20:57

#	Modifying user name:	WinNT
#	Modification time:	15. 06. 2019 20:57

#	Program:	/corina/corina34_cracker 3.40 0067  02.08.2006

@<TRIPOS>MOLECULE
ASD05143320
  48   50    0    0    0
SMALL
NO_CHARGES


@<TRIPOS>ATOM
   1 C1            -0.1658     1.4629     0.1429 C.2     
   2 N2             0.0812     0.2124    -0.1936 N.2     
   3 S3            -1.4359    -0.5470    -0.2884 S.3     
   4 C4            -2.3288     0.8646     0.1318 C.2     
   5 N5            -1.4278     1.8038     0.3184 N.2     
   6 N6            -3.7013     0.9835     0.2524 N.pl3   
   7 C7            -4.2604     2.1712     0.7334 C.ar    
   8 C8            -5.5597     2.5269     0.3938 C.ar    
   9 N9            -6.0898     3.6459     0.8450 N.ar    
  10 C10           -5.4181     4.4663     1.6294 C.ar    
  11 C11           -4.1206     4.1810     2.0114 C.ar    
  12 C12           -3.5251     3.0125     1.5649 C.ar    
  13 C13            1.3084    -0.3574    -0.4209 C.ar    
  14 C14            2.1566     0.1702    -1.3941 C.ar    
  15 C15            1.7181    -1.4682     0.3273 C.ar    
  16 C16            2.9582    -2.0359     0.0911 C.ar    
  17 C17            3.7893    -1.5072    -0.8801 C.ar    
  18 C18            3.3904    -0.4071    -1.6180 C.ar    
  19 C19            0.9296     2.4434     0.3225 C.ar    
  20 C20            0.7229     3.7874     0.0108 C.ar    
  21 C21            2.1685     2.0262     0.8093 C.ar    
  22 C22            3.1858     2.9418     0.9758 C.ar    
  23 C23            2.9782     4.2778     0.6595 C.ar    
  24 C24            1.7446     4.6975     0.1797 C.ar    
  25 O25            3.9828     5.1775     0.8252 O.3     
  26 C26            3.7010     6.5353     0.4803 C.3     
  27 O27            0.9013    -1.9865     1.2818 O.3     
  28 C28            1.3860    -3.1197     2.0050 C.3     
  29 H29           -4.2760     0.2429     0.0033 H       
  30 H30           -6.1411     1.8801    -0.2466 H       
  31 H31           -5.8883     5.3740     1.9778 H       
  32 H32           -3.5787     4.8593     2.6537 H       
  33 H33           -2.5127     2.7643     1.8477 H       
  34 H34            1.8485     1.0289    -1.9721 H       
  35 H35            3.2774    -2.8925     0.6661 H       
  36 H36            4.7562    -1.9532    -1.0606 H       
  37 H37            4.0452    -0.0007    -2.3746 H       
  38 H38           -0.2362     4.1145    -0.3628 H       
  39 H39            2.3306     0.9873     1.0559 H       
  40 H40            4.1451     2.6195     1.3529 H       
  41 H41            1.5867     5.7374    -0.0657 H       
  42 H42            3.4268     6.5933    -0.5730 H       
  43 H43            2.8760     6.9017     1.0913 H       
  44 H44            4.5854     7.1468     0.6596 H       
  45 H45            1.5811    -3.9373     1.3110 H       
  46 H46            2.3083    -2.8538     2.5215 H       
  47 H47            0.6385    -3.4324     2.7340 H       
  48 Br48           9.7562    12.1468     7.7340 Br      
@<TRIPOS>BOND
   1    1    2 2
   2    1   19 1
   3    1    5 1
   4    2    3 1
   5    2   13 1
   6    3    4 1
   7    4    5 2
   8    4    6 1
   9    6    7 1
  10    6   29 1
  11    7    8 ar
  12    7   12 ar
  13    8    9 ar
  14    8   30 1
  15    9   10 ar
  16   10   11 ar
  17   10   31 1
  18   11   12 ar
  19   11   32 1
  20   12   33 1
  21   13   14 ar
  22   13   15 ar
  23   14   18 ar
  24   14   34 1
  25   15   16 ar
  26   15   27 1
  27   16   17 ar
  28   16   35 1
  29   17   18 ar
  30   17   36 1
  31   18   37 1
  32   19   20 ar
  33   19   21 ar
  34   20   24 ar
  35   20   38 1
  36   21   22 ar
  37   21   39 1
  38   22   23 ar
  39   22   40 1
  40   23   24 ar
  41   23   25 1
  42   24   41 1
  43   25   26 1
  44   26   42 1
  45   26   43 1
  46   26   44 1
  47   27   28 1
  48   28   45 1
  49   28   46 1
  50   28   47 1

#	End of record

