#	Name: ASD01915827
#	Creating user name:	WinNT
#	Creation time:	15. 06. 2019 20:06

#	Modifying user name:	WinNT
#	Modification time:	15. 06. 2019 20:06

#	Program:	/corina/corina34_cracker 3.40 0067  02.08.2006

@<TRIPOS>MOLECULE
ASD01915827
  40   43    0    0    0
SMALL
NO_CHARGES


@<TRIPOS>ATOM
   1 C1            -0.0042     1.4683     0.2335 C.2     
   2 N2             0.0659     0.1186    -0.0300 N.pl3   
   3 C3            -1.1434    -0.6644    -0.3114 C.3     
   4 C4            -2.3281    -0.0484     0.4310 C.3     
   5 N5            -2.4044     1.3988     0.2637 N.am    
   6 C6            -1.2934     2.1741     0.2849 C.2     
   7 C7             1.2764     1.9056     0.4234 C.2     
   8 C8             2.0758     0.7646     0.2720 C.2     
   9 N9             1.2861    -0.2510     0.0106 N.2     
  10 C10            3.5774     0.7127     0.3879 C.3     
  11 O11            4.0780     2.0189     0.6799 O.3     
  12 C12            5.4240     2.1473     0.8173 C.ar    
  13 O13           -1.3587     3.3874     0.3427 O.2     
  14 C14            5.9783     3.3870     1.1011 C.ar    
  15 C15            6.2454     1.0378     0.6797 C.ar    
  16 C16            7.6133     1.1710     0.8197 C.ar    
  17 C17            8.1638     2.4087     1.0969 C.ar    
  18 C18            7.3467     3.5149     1.2403 C.ar    
  19 C19           -3.6537     2.0000     0.0765 C.ar    
  20 C20           -3.9743     2.5997    -1.1394 C.ar    
  21 C21           -5.2231     3.1818    -1.2769 C.ar    
  22 C22           -6.1049     3.1492    -0.2108 C.ar    
  23 N23           -5.7704     2.5730     0.9278 N.ar    
  24 C24           -4.5940     2.0025     1.0980 C.ar    
  25 Br25          -7.8125     3.9420    -0.3884 Br      
  26 H26           -1.3413    -0.6556    -1.3833 H       
  27 H27           -0.9981    -1.6914     0.0238 H       
  28 H28           -3.2491    -0.4953     0.0567 H       
  29 H29           -2.2349    -0.2758     1.4929 H       
  30 H30            1.6018     2.9119     0.6423 H       
  31 H31            3.8565     0.0290     1.1896 H       
  32 H32            4.0026     0.3625    -0.5527 H       
  33 H33            5.3406     4.2514     1.2128 H       
  34 H34            5.8159     0.0708     0.4635 H       
  35 H35            8.2532     0.3076     0.7130 H       
  36 H36            9.2334     2.5107     1.2061 H       
  37 H37            7.7792     4.4807     1.4564 H       
  38 H38           -3.2660     2.6107    -1.9546 H       
  39 H39           -5.5055     3.6561    -2.2052 H       
  40 H40           -4.3561     1.5403     2.0446 H       
@<TRIPOS>BOND
   1    1    2 1
   2    1    7 2
   3    1    6 1
   4    2    3 1
   5    2    9 1
   6    3    4 1
   7    3   26 1
   8    3   27 1
   9    4    5 1
  10    4   28 1
  11    4   29 1
  12    5    6 am
  13    5   19 1
  14    6   13 2
  15    7    8 1
  16    7   30 1
  17    8    9 2
  18    8   10 1
  19   10   11 1
  20   10   31 1
  21   10   32 1
  22   11   12 1
  23   12   14 ar
  24   12   15 ar
  25   14   18 ar
  26   14   33 1
  27   15   16 ar
  28   15   34 1
  29   16   17 ar
  30   16   35 1
  31   17   18 ar
  32   17   36 1
  33   18   37 1
  34   19   20 ar
  35   19   24 ar
  36   20   21 ar
  37   20   38 1
  38   21   22 ar
  39   21   39 1
  40   22   23 ar
  41   22   25 1
  42   23   24 ar
  43   24   40 1

#	End of record

