#	Name: ASD03330844
#	Creating user name:	WinNT
#	Creation time:	15. 06. 2019 20:38

#	Modifying user name:	WinNT
#	Modification time:	15. 06. 2019 20:38

#	Program:	/corina/corina34_cracker 3.40 0067  02.08.2006

@<TRIPOS>MOLECULE
ASD03330844
  64   66    0    0    0
SMALL
NO_CHARGES


@<TRIPOS>ATOM
   1 C1            -0.0529     1.9971     1.7790 C.2     
   2 N2            -0.1394     0.7049     2.1939 N.pl3   
   3 C3             1.2237     2.1947     1.3483 C.2     
   4 N4             1.8911     1.0279     1.4872 N.2     
   5 C5             1.0791     0.1265     1.9887 C.2     
   6 C6             1.4270    -1.2799     2.2827 C.ar    
   7 C7             2.1155    -2.0472     1.3356 C.ar    
   8 C8             1.7781     3.4552     0.8240 C.2     
   9 O9             1.0737     4.4437     0.7466 O.2     
  10 C10            3.6170     4.7661    -0.0911 C.3     
  11 N11            3.0657     3.5128     0.4301 N.am    
  12 C12            2.4375    -3.3645     1.6208 C.ar    
  13 C13            2.0800    -3.9174     2.8356 C.ar    
  14 C14            1.3990    -3.1618     3.7747 C.ar    
  15 C15            1.0760    -1.8477     3.5078 C.ar    
  16 C16           -1.3316     0.0747     2.7675 C.3     
  17 C17           -2.5469     0.4152     1.8992 C.3     
  18 C18           -3.1593     1.7328     2.3632 C.3     
  19 N19           -2.1280     2.6506     2.8508 N.3     
  20 C20           -1.1769     3.0006     1.7853 C.3     
  21 C21           -2.7300     3.8561     3.4359 C.3     
  22 C22            3.3079     4.8766    -1.5855 C.3     
  23 C23            1.7977     4.7639    -1.8037 C.3     
  24 C24            3.7995     6.2274    -2.1094 C.3     
  25 C25            4.0174     3.7490    -2.3378 C.3     
  26 C26            5.1096     4.7828     0.1157 C.2     
  27 O27            5.6945     3.7580     0.3961 O.2     
  28 N28            5.7945     5.9366    -0.0108 N.am    
  29 C29            7.2540     5.9399     0.1171 C.3     
  30 O30            2.4660    -1.5028     0.1419 O.3     
  31 C31            3.1782    -4.1952     0.6047 C.3     
  32 F32            3.3875    -5.4804     1.1163 F       
  33 F33            2.4227    -4.2782    -0.5698 F       
  34 F34            4.4120    -3.5982     0.3244 F       
  35 H35            3.1676     5.6077     0.4360 H       
  36 H36            3.6275     2.7244     0.4919 H       
  37 H37            2.3327    -4.9446     3.0534 H       
  38 H38            1.1230    -3.6019     4.7215 H       
  39 H39            0.5450    -1.2614     4.2431 H       
  40 H40           -1.1948    -1.0063     2.7949 H       
  41 H41           -1.4904     0.4486     3.7791 H       
  42 H42           -2.2348     0.5070     0.8589 H       
  43 H43           -3.2881    -0.3793     1.9856 H       
  44 H44           -3.6849     2.1965     1.5284 H       
  45 H45           -3.8696     1.5341     3.1658 H       
  46 H46           -0.7748     3.9970     1.9684 H       
  47 H47           -1.6863     2.9832     0.8219 H       
  48 H48           -3.3699     3.5736     4.2718 H       
  49 H49           -1.9418     4.5206     3.7901 H       
  50 H50           -3.3248     4.3687     2.6799 H       
  51 H51            1.2923     5.5672    -1.2677 H       
  52 H52            1.5776     4.8426    -2.8683 H       
  53 H53            1.4475     3.8015    -1.4304 H       
  54 H54            4.8434     6.3679    -1.8289 H       
  55 H55            3.7088     6.2507    -3.1954 H       
  56 H56            3.1965     7.0260    -1.6772 H       
  57 H57            3.6672     2.7866    -1.9646 H       
  58 H58            3.7972     3.8277    -3.4024 H       
  59 H59            5.0933     3.8292    -2.1824 H       
  60 H60            5.3212     6.7648    -0.1866 H       
  61 H61            7.5329     5.5751     1.1056 H       
  62 H62            7.6869     5.2917    -0.6449 H       
  63 H63            7.6279     6.9553    -0.0144 H       
  64 H64            3.3366    -1.0820     0.1420 H       
@<TRIPOS>BOND
   1    1    2 1
   2    1    3 2
   3    1   20 1
   4    2   16 1
   5    2    5 1
   6    3    4 1
   7    3    8 1
   8    4    5 2
   9    5    6 1
  10    6    7 ar
  11    6   15 ar
  12    7   12 ar
  13    7   30 1
  14    8    9 2
  15    8   11 am
  16   10   11 1
  17   10   22 1
  18   10   26 1
  19   10   35 1
  20   11   36 1
  21   12   13 ar
  22   12   31 1
  23   13   14 ar
  24   13   37 1
  25   14   15 ar
  26   14   38 1
  27   15   39 1
  28   16   17 1
  29   16   40 1
  30   16   41 1
  31   17   18 1
  32   17   42 1
  33   17   43 1
  34   18   19 1
  35   18   44 1
  36   18   45 1
  37   19   20 1
  38   19   21 1
  39   20   46 1
  40   20   47 1
  41   21   48 1
  42   21   49 1
  43   21   50 1
  44   22   23 1
  45   22   24 1
  46   22   25 1
  47   23   51 1
  48   23   52 1
  49   23   53 1
  50   24   54 1
  51   24   55 1
  52   24   56 1
  53   25   57 1
  54   25   58 1
  55   25   59 1
  56   26   27 2
  57   26   28 am
  58   28   29 1
  59   28   60 1
  60   29   61 1
  61   29   62 1
  62   29   63 1
  63   30   64 1
  64   31   32 1
  65   31   33 1
  66   31   34 1

#	End of record

