#	Name: ASD00844285
#	Creating user name:	WinNT
#	Creation time:	15. 06. 2019 18:49

#	Modifying user name:	WinNT
#	Modification time:	15. 06. 2019 18:49

#	Program:	/corina/corina34_cracker 3.40 0067  02.08.2006

@<TRIPOS>MOLECULE
ASD00844285
  98  103    0    0    0
SMALL
NO_CHARGES


@<TRIPOS>ATOM
   1 C1            -0.0141     1.3804     0.0277 C.ar    
   2 C2             0.0034    -0.0065     0.0122 C.ar    
   3 C3             1.2150    -0.6826    -0.0058 C.ar    
   4 C4             2.4002     0.0266    -0.0081 C.ar    
   5 C5             2.3801     1.4092     0.0079 C.ar    
   6 C6             1.1743     2.0852     0.0253 C.ar    
   7 C7             1.2376    -2.1893    -0.0222 C.3     
   8 C8             0.4952    -2.7180    -1.2310 C.2     
   9 N9             2.6176    -2.6810    -0.0116 N.am    
  10 C10            3.4640    -2.3347    -1.0016 C.2     
  11 N11            4.7595    -2.7012    -0.9396 N.am    
  12 O12            3.0589    -1.6916    -1.9506 O.2     
  13 C13            5.2900    -3.3772     0.2522 C.3     
  14 C14            6.5163    -2.6065     0.7513 C.3     
  15 C15            7.5242    -2.4641    -0.3915 C.3     
  16 C16            6.8900    -1.6727    -1.5377 C.3     
  17 C17            5.6666    -2.4379    -2.0650 C.3     
  18 C18            8.7653    -1.7249     0.1126 C.3     
  19 C19            9.4020    -2.5163     1.2584 C.3     
  20 C20           10.6762    -1.8038     1.7177 C.3     
  21 N21           11.6129    -1.6990     0.5916 N.3     
  22 C22           11.0414    -0.9030    -0.5021 C.3     
  23 C23            9.7781    -1.5885    -1.0276 C.3     
  24 C24           12.9014    -1.1449     1.0284 C.3     
  25 O25            0.7758    -2.5160    -2.3934 O.2     
  26 N26           -0.5321    -3.4536    -0.7747 N.am    
  27 C27            0.4653    -2.7438     1.1533 C.ar    
  28 C28           -0.5804    -3.4907     0.6160 C.ar    
  29 C29            0.6279    -2.6294     2.5106 C.ar    
  30 C30           -0.2666    -3.2702     3.3753 C.ar    
  31 C31           -1.3202    -4.0228     2.8424 C.ar    
  32 C32           -1.4721    -4.1310     1.4766 C.ar    
  33 F33           -2.1892    -4.6452     3.6686 F       
  34 C34           -0.9821    -5.8413    -2.0671 C.ar    
  35 C35            0.1978    -5.9965    -2.7798 C.ar    
  36 C36           -1.6549    -6.9527    -1.5968 C.ar    
  37 C37           -1.1529    -8.2184    -1.8356 C.ar    
  38 C38            0.0232    -8.3758    -2.5457 C.ar    
  39 C39            0.6994    -7.2680    -3.0184 C.ar    
  40 H40            0.4134    -9.3656    -2.7309 H       
  41 O41            0.8613    -4.9049    -3.2438 O.3     
  42 C42            2.0696    -5.1401    -3.9695 C.3     
  43 C43            2.6697    -3.8028    -4.4081 C.3     
  44 C44           13.9243    -1.2809    -0.1012 C.3     
  45 C45           15.2662    -0.7038     0.3538 C.3     
  46 C46           -0.1054    -3.1576     4.7937 C.1     
  47 N47            0.0225    -3.0682     5.9189 N.1     
  48 S48           -1.6184    -4.2281    -1.7557 S.o2    
  49 O49           -2.7997    -4.4044    -0.9857 O.2     
  50 O50           -1.5967    -3.5411    -2.9994 O.2     
  51 O51           -1.1642    -0.7020     0.0150 O.3     
  52 C52           -2.3730     0.0598     0.0343 C.3     
  53 C53           -3.5736    -0.8887     0.0346 C.3     
  54 F54           -3.5410    -1.6825    -1.1169 F       
  55 F55           -3.5204    -1.7079     1.1674 F       
  56 H56           -0.9559     1.9090     0.0372 H       
  57 H57            3.3435    -0.4991    -0.0221 H       
  58 H58            3.3080     1.9619     0.0067 H       
  59 H59            1.1612     3.1650     0.0378 H       
  60 H60            2.9221    -3.2557     0.7080 H       
  61 H61            4.5280    -3.3957     1.0314 H       
  62 H62            5.5785    -4.3966    -0.0040 H       
  63 H63            6.2104    -1.6173     1.0920 H       
  64 H64            6.9764    -3.1499     1.5766 H       
  65 H65            7.8109    -3.4533    -0.7483 H       
  66 H66            6.5806    -0.6924    -1.1754 H       
  67 H67            7.6161    -1.5516    -2.3416 H       
  68 H68            5.9884    -3.3794    -2.5099 H       
  69 H69            5.1529    -1.8344    -2.8133 H       
  70 H70            8.4802    -0.7347     0.4682 H       
  71 H71            8.7007    -2.5801     2.0904 H       
  72 H72            9.6505    -3.5199     0.9134 H       
  73 H73           10.4251    -0.8053     2.0754 H       
  74 H74           11.1397    -2.3724     2.5239 H       
  75 H75           10.7886     0.0913    -0.1340 H       
  76 H76           11.7701    -0.8172    -1.3081 H       
  77 H77           10.0325    -2.5776    -1.4086 H       
  78 H78            9.3455    -0.9895    -1.8289 H       
  79 H79           12.7771    -0.0919     1.2812 H       
  80 H80           13.2529    -1.6898     1.9045 H       
  81 H81            1.4444    -2.0467     2.9109 H       
  82 H82           -2.2865    -4.7129     1.0709 H       
  83 H83           -2.5736    -6.8324    -1.0419 H       
  84 H84           -1.6799    -9.0859    -1.4665 H       
  85 H85            1.6175    -7.3914    -3.5736 H       
  86 H86            2.7802    -5.6654    -3.3314 H       
  87 H87            1.8531    -5.7470    -4.8487 H       
  88 H88            3.5913    -3.9822    -4.9616 H       
  89 H89            1.9590    -3.2775    -5.0461 H       
  90 H90            2.8861    -3.1959    -3.5289 H       
  91 H91           14.0486    -2.3339    -0.3540 H       
  92 H92           13.5727    -0.7360    -0.9773 H       
  93 H93           15.1420     0.3492     0.6066 H       
  94 H94           15.6178    -1.2487     1.2299 H       
  95 H95           15.9950    -0.8007    -0.4510 H       
  96 H96           -2.3984     0.6783     0.9315 H       
  97 H97           -2.4144     0.6981    -0.8483 H       
  98 H98           -4.4957    -0.3076     0.0493 H       
@<TRIPOS>BOND
   1    1    2 ar
   2    1    6 ar
   3    1   56 1
   4    2    3 ar
   5    2   51 1
   6    3    4 ar
   7    3    7 1
   8    4    5 ar
   9    4   57 1
  10    5    6 ar
  11    5   58 1
  12    6   59 1
  13    7    8 1
  14    7    9 1
  15    7   27 1
  16    8   25 2
  17    8   26 am
  18    9   10 am
  19    9   60 1
  20   10   11 am
  21   10   12 2
  22   11   13 1
  23   11   17 1
  24   13   14 1
  25   13   61 1
  26   13   62 1
  27   14   15 1
  28   14   63 1
  29   14   64 1
  30   15   16 1
  31   15   18 1
  32   15   65 1
  33   16   17 1
  34   16   66 1
  35   16   67 1
  36   17   68 1
  37   17   69 1
  38   18   19 1
  39   18   23 1
  40   18   70 1
  41   19   20 1
  42   19   71 1
  43   19   72 1
  44   20   21 1
  45   20   73 1
  46   20   74 1
  47   21   22 1
  48   21   24 1
  49   22   23 1
  50   22   75 1
  51   22   76 1
  52   23   77 1
  53   23   78 1
  54   24   44 1
  55   24   79 1
  56   24   80 1
  57   26   48 am
  58   26   28 1
  59   27   28 ar
  60   27   29 ar
  61   28   32 ar
  62   29   30 ar
  63   29   81 1
  64   30   31 ar
  65   30   46 1
  66   31   32 ar
  67   31   33 1
  68   32   82 1
  69   34   35 ar
  70   34   36 ar
  71   34   48 1
  72   35   41 1
  73   35   39 ar
  74   36   37 ar
  75   36   83 1
  76   37   38 ar
  77   37   84 1
  78   38   39 ar
  79   38   40 1
  80   39   85 1
  81   41   42 1
  82   42   43 1
  83   42   86 1
  84   42   87 1
  85   43   88 1
  86   43   89 1
  87   43   90 1
  88   44   45 1
  89   44   91 1
  90   44   92 1
  91   45   93 1
  92   45   94 1
  93   45   95 1
  94   46   47 3
  95   48   49 2
  96   48   50 2
  97   51   52 1
  98   52   53 1
  99   52   96 1
 100   52   97 1
 101   53   54 1
 102   53   55 1
 103   53   98 1

#	End of record

