#	Name: ASD05313224
#	Creating user name:	WinNT
#	Creation time:	15. 06. 2019 20:58

#	Modifying user name:	WinNT
#	Modification time:	15. 06. 2019 20:58

#	Program:	/corina/corina34_cracker 3.40 0067  02.08.2006

@<TRIPOS>MOLECULE
ASD05313224
  40   43    0    0    0
SMALL
NO_CHARGES


@<TRIPOS>ATOM
   1 C1            -0.0742     0.8188     1.0253 C.2     
   2 C2             0.1127    -0.6197     0.5966 C.3     
   3 N3             0.9282     1.7308     1.0518 N.pl3   
   4 N4             1.4551    -0.7208    -0.0047 N.am    
   5 C5             2.5693    -0.0406     0.6730 C.3     
   6 C6             2.3163     1.4710     0.6626 C.3     
   7 N7            -1.1730     1.3850     1.4243 N.2     
   8 C8            -0.9210     2.6772     1.7240 C.2     
   9 C9             0.4001     2.9059     1.4952 C.2     
  10 C10           -1.9078     3.6692     2.2174 C.ar    
  11 C11           -3.2364     3.2966     2.4120 C.ar    
  12 C12           -4.1501     4.2235     2.8712 C.ar    
  13 C13           -3.7492     5.5203     3.1378 C.ar    
  14 C14           -2.4316     5.8956     2.9464 C.ar    
  15 C15           -1.5081     4.9753     2.4935 C.ar    
  16 C16            1.6554    -1.4164    -1.1416 C.2     
  17 O17            2.7474    -1.4068    -1.6756 O.2     
  18 C18            0.5476    -2.1907    -1.7390 C.ar    
  19 C19            0.3172    -2.1379    -3.1159 C.ar    
  20 C20           -0.7212    -2.8650    -3.6672 C.ar    
  21 C21           -1.5307    -3.6428    -2.8574 C.ar    
  22 C22           -1.3067    -3.6979    -1.4931 C.ar    
  23 C23           -0.2700    -2.9826    -0.9308 C.ar    
  24 Cl24          -1.0108    -2.8022    -5.3777 Cl      
  25 Cl25           1.3316    -1.1616    -4.1316 Cl      
  26 H26            0.0429    -1.2777     1.4628 H       
  27 H27           -0.6452    -0.8899    -0.1386 H       
  28 H28            2.6382    -0.3915     1.7027 H       
  29 H29            3.5008    -0.2577     0.1501 H       
  30 H30            2.4930     1.8629    -0.3391 H       
  31 H31            2.9894     1.9575     1.3685 H       
  32 H32            0.9282     3.8369     1.6395 H       
  33 H33           -3.5507     2.2846     2.2035 H       
  34 H34           -5.1801     3.9359     3.0223 H       
  35 H35           -4.4677     6.2426     3.4963 H       
  36 H36           -2.1241     6.9094     3.1561 H       
  37 H37           -0.4787     5.2681     2.3491 H       
  38 H38           -2.3410    -4.2089    -3.2924 H       
  39 H39           -1.9426    -4.3066    -0.8673 H       
  40 H40           -0.0943    -3.0310     0.1337 H       
@<TRIPOS>BOND
   1    1    2 1
   2    1    3 1
   3    1    7 2
   4    2    4 1
   5    2   26 1
   6    2   27 1
   7    3    6 1
   8    3    9 1
   9    4    5 1
  10    4   16 am
  11    5    6 1
  12    5   28 1
  13    5   29 1
  14    6   30 1
  15    6   31 1
  16    7    8 1
  17    8    9 2
  18    8   10 1
  19    9   32 1
  20   10   11 ar
  21   10   15 ar
  22   11   12 ar
  23   11   33 1
  24   12   13 ar
  25   12   34 1
  26   13   14 ar
  27   13   35 1
  28   14   15 ar
  29   14   36 1
  30   15   37 1
  31   16   17 2
  32   16   18 1
  33   18   19 ar
  34   18   23 ar
  35   19   20 ar
  36   19   25 1
  37   20   21 ar
  38   20   24 1
  39   21   22 ar
  40   21   38 1
  41   22   23 ar
  42   22   39 1
  43   23   40 1

#	End of record

