#	Name: ASD07301357
#	Creating user name:	WinNT
#	Creation time:	15. 06. 2019 21:11

#	Modifying user name:	WinNT
#	Modification time:	15. 06. 2019 21:11

#	Program:	/corina/corina34_cracker 3.40 0067  02.08.2006

@<TRIPOS>MOLECULE
ASD07301357
  49   53    0    0    0
SMALL
NO_CHARGES


@<TRIPOS>ATOM
   1 C1             0.1354     1.3898     0.0132 C.2     
   2 C2            -0.0181    -0.0522     0.2672 C.2     
   3 C3             1.1687    -0.8167     0.3973 C.2     
   4 C4             2.3539    -0.1703     0.2795 C.2     
   5 N5             2.3976     1.1630     0.0455 N.pl3   
   6 N6             1.3497     1.8907    -0.0791 N.2     
   7 O7            -1.1211    -0.5680     0.3621 O.2     
   8 C8             3.6495     1.7769    -0.0663 C.ar    
   9 C9             3.7404     3.1066    -0.4588 C.ar    
  10 C10            4.9778     3.7095    -0.5683 C.ar    
  11 C11            6.1260     2.9911    -0.2881 C.ar    
  12 C12            6.0392     1.6676     0.1027 C.ar    
  13 C13            4.8043     1.0601     0.2202 C.ar    
  14 C14            5.0773     5.1517    -0.9939 C.3     
  15 F15            5.0359     5.9753     0.1362 F       
  16 F16            6.2823     5.3548    -1.6750 F       
  17 F17            4.0062     5.4638    -1.8380 F       
  18 C18           -1.0483     2.2558    -0.1409 C.2     
  19 N19           -2.2512     1.7433    -0.0521 N.2     
  20 C20           -3.3465     2.5606    -0.0843 C.ar    
  21 C21           -4.3745     2.3211    -0.9999 C.ar    
  22 C22           -5.4767     3.1497    -1.0263 C.ar    
  23 C23           -5.5659     4.2163    -0.1492 C.ar    
  24 C24           -4.5515     4.4599     0.7600 C.ar    
  25 C25           -3.4461     3.6362     0.8021 C.ar    
  26 N26           -0.8883     3.6140    -0.3801 N.pl3   
  27 N27           -0.7398     4.6235     0.5824 N.2     
  28 N28           -0.6153     5.7614    -0.0044 N.2     
  29 C29           -0.6691     5.6051    -1.3485 C.ar    
  30 C30           -0.8384     4.2344    -1.6104 C.ar    
  31 C31           -0.5872     6.5022    -2.4204 C.ar    
  32 C32           -0.6770     6.0419    -3.7021 C.ar    
  33 C33           -0.8496     4.6886    -3.9595 C.ar    
  34 C34           -0.9208     3.7845    -2.9221 C.ar    
  35 H35            1.1294    -1.8797     0.5846 H       
  36 H36            3.2755    -0.7255     0.3738 H       
  37 H37            2.8442     3.6679    -0.6784 H       
  38 H38            7.0927     3.4648    -0.3752 H       
  39 H39            6.9378     1.1094     0.3204 H       
  40 H40            4.7369     0.0278     0.5301 H       
  41 H41           -4.3059     1.4894    -1.6855 H       
  42 H42           -6.2721     2.9658    -1.7334 H       
  43 H43           -6.4312     4.8620    -0.1747 H       
  44 H44           -4.6275     5.2947     1.4410 H       
  45 H45           -2.6573     3.8248     1.5152 H       
  46 H46           -0.4533     7.5574    -2.2332 H       
  47 H47           -0.6136     6.7381    -4.5252 H       
  48 H48           -0.9192     4.3411    -4.9797 H       
  49 H49           -1.0532     2.7325    -3.1275 H       
@<TRIPOS>BOND
   1    1    2 1
   2    1    6 2
   3    1   18 1
   4    2    3 1
   5    2    7 2
   6    3    4 2
   7    3   35 1
   8    4    5 1
   9    4   36 1
  10    5    6 1
  11    5    8 1
  12    8    9 ar
  13    8   13 ar
  14    9   10 ar
  15    9   37 1
  16   10   11 ar
  17   10   14 1
  18   11   12 ar
  19   11   38 1
  20   12   13 ar
  21   12   39 1
  22   13   40 1
  23   14   15 1
  24   14   16 1
  25   14   17 1
  26   18   19 2
  27   18   26 1
  28   19   20 1
  29   20   21 ar
  30   20   25 ar
  31   21   22 ar
  32   21   41 1
  33   22   23 ar
  34   22   42 1
  35   23   24 ar
  36   23   43 1
  37   24   25 ar
  38   24   44 1
  39   25   45 1
  40   26   27 1
  41   26   30 1
  42   27   28 2
  43   28   29 1
  44   29   30 ar
  45   29   31 ar
  46   30   34 ar
  47   31   32 ar
  48   31   46 1
  49   32   33 ar
  50   32   47 1
  51   33   34 ar
  52   33   48 1
  53   34   49 1

#	End of record

