#	Name: ASD01230199
#	Creating user name:	WinNT
#	Creation time:	15. 06. 2019 19:12

#	Modifying user name:	WinNT
#	Modification time:	15. 06. 2019 19:12

#	Program:	/corina/corina34_cracker 3.40 0067  02.08.2006

@<TRIPOS>MOLECULE
ASD01230199
  46   48    0    0    0
SMALL
NO_CHARGES


@<TRIPOS>ATOM
   1 S1             0.1428     1.6870     0.7400 S.o2    
   2 N2             0.0943     0.0544     0.4751 N.am    
   3 C3             1.0569    -0.5823    -0.1467 C.2     
   4 N4             2.1925    -0.0110    -0.6460 N.pl3   
   5 C5             2.4674     1.4279    -0.6129 C.3     
   6 C6             1.9259     2.0499     0.6774 C.3     
   7 C7             0.8703    -2.0404    -0.3051 C.2     
   8 C8             1.8596    -2.7811    -0.9144 C.2     
   9 C9             3.0141    -2.1290    -1.3690 C.2     
  10 C10            3.1541    -0.7999    -1.2271 C.2     
  11 C11           -0.3634    -2.6962     0.1850 C.ar    
  12 C12           -0.2966    -3.6231     1.2257 C.ar    
  13 C13           -1.4477    -4.2314     1.6798 C.ar    
  14 C14           -2.6721    -3.9230     1.1024 C.ar    
  15 C15           -2.7425    -3.0012     0.0666 C.ar    
  16 C16           -1.5964    -2.3845    -0.3889 C.ar    
  17 O17           -3.8044    -4.5252     1.5520 O.3     
  18 C18           -3.6786    -5.3709     2.6970 C.3     
  19 C19           -4.9209    -5.2245     3.5780 C.3     
  20 C20           -4.9881    -3.8001     4.1323 C.3     
  21 C21           -3.5432    -6.8260     2.2439 C.3     
  22 C22           -2.2363    -6.9989     1.4676 C.3     
  23 O23           -0.5263     2.2509    -0.3796 O.2     
  24 O24           -0.3591     1.8503     2.0593 O.2     
  25 H25            3.5441     1.5894    -0.6656 H       
  26 H26            1.9908     1.9047    -1.4694 H       
  27 H27            2.0853     3.1282     0.6654 H       
  28 H28            2.4252     1.6093     1.5403 H       
  29 H29            1.7473    -3.8479    -1.0394 H       
  30 H30            3.8005    -2.7014    -1.8386 H       
  31 H31            4.0602    -0.3334    -1.5847 H       
  32 H32            0.6556    -3.8640     1.6749 H       
  33 H33           -1.3967    -4.9490     2.4854 H       
  34 H34           -3.6967    -2.7637    -0.3801 H       
  35 H35           -1.6525    -1.6644    -1.1919 H       
  36 H36           -2.7941    -5.0836     3.2655 H       
  37 H37           -5.8129    -5.4260     2.9848 H       
  38 H38           -4.8661    -5.9336     4.4040 H       
  39 H39           -5.8731    -3.6958     4.7600 H       
  40 H40           -4.0962    -3.5986     4.7256 H       
  41 H41           -5.0429    -3.0910     3.3063 H       
  42 H42           -3.5366    -7.4791     3.1166 H       
  43 H43           -4.3846    -7.0863     1.6017 H       
  44 H44           -2.1398    -8.0356     1.1448 H       
  45 H45           -2.2429    -6.3458     0.5949 H       
  46 H46           -1.3949    -6.7386     2.1098 H       
@<TRIPOS>BOND
   1    1    2 am
   2    1    6 1
   3    1   23 2
   4    1   24 2
   5    2    3 2
   6    3    4 1
   7    3    7 1
   8    4    5 1
   9    4   10 1
  10    5    6 1
  11    5   25 1
  12    5   26 1
  13    6   27 1
  14    6   28 1
  15    7    8 2
  16    7   11 1
  17    8    9 1
  18    8   29 1
  19    9   10 2
  20    9   30 1
  21   10   31 1
  22   11   12 ar
  23   11   16 ar
  24   12   13 ar
  25   12   32 1
  26   13   14 ar
  27   13   33 1
  28   14   15 ar
  29   14   17 1
  30   15   16 ar
  31   15   34 1
  32   16   35 1
  33   17   18 1
  34   18   19 1
  35   18   21 1
  36   18   36 1
  37   19   20 1
  38   19   37 1
  39   19   38 1
  40   20   39 1
  41   20   40 1
  42   20   41 1
  43   21   22 1
  44   21   42 1
  45   21   43 1
  46   22   44 1
  47   22   45 1
  48   22   46 1

#	End of record

