#	Name: ASD00069347
#	Creating user name:	WinNT
#	Creation time:	15. 06. 2019 18:29

#	Modifying user name:	WinNT
#	Modification time:	15. 06. 2019 18:29

#	Program:	/corina/corina34_cracker 3.40 0067  02.08.2006

@<TRIPOS>MOLECULE
ASD00069347
  65   69    0    0    0
SMALL
NO_CHARGES


@<TRIPOS>ATOM
   1 C1            -0.0896     1.1239    -0.3935 C.2     
   2 N2            -0.1112    -0.1917    -0.4226 N.2     
   3 C3             1.1441    -0.6470    -0.5109 C.2     
   4 C4             1.9845     0.4311    -0.5381 C.2     
   5 N5             1.2105     1.5392    -0.4645 N.pl3   
   6 C6            -1.2695     2.0018    -0.3056 C.2     
   7 O7            -1.1286     3.2098    -0.2863 O.2     
   8 N8            -2.5049     1.4664    -0.2466 N.am    
   9 N9             2.7962    -3.9143    -0.6869 N.am    
  10 C10            2.8173    -2.5476    -0.6572 C.2     
  11 C11            1.5524    -2.0724    -0.5688 C.2     
  12 C12            0.6613    -3.2428    -0.5406 C.ar    
  13 C13           -0.7213    -3.4052    -0.4590 C.ar    
  14 C14           -1.2582    -4.6621    -0.4542 C.ar    
  15 C15           -0.4374    -5.7789    -0.5299 C.ar    
  16 C16            0.9307    -5.6405    -0.6107 C.ar    
  17 C17            1.4978    -4.3695    -0.6176 C.ar    
  18 S18            4.1358    -4.8816    -0.7975 S.o2    
  19 O19            3.8660    -5.8247    -1.8256 O.2     
  20 O20            5.2588    -4.0111    -0.8165 O.2     
  21 C21            4.2424    -5.7985     0.7034 C.ar    
  22 C22            3.6171    -7.0268     0.8088 C.ar    
  23 C23            3.7006    -7.7462     1.9863 C.ar    
  24 C24            4.4099    -7.2374     3.0582 C.ar    
  25 C25            5.0359    -6.0094     2.9525 C.ar    
  26 C26            4.9559    -5.2921     1.7735 C.ar    
  27 C27           -3.6192     2.2951    -0.0679 C.ar    
  28 C28           -4.7709     1.7964     0.5381 C.ar    
  29 C29           -5.8701     2.6208     0.7122 C.ar    
  30 C30           -5.8236     3.9352     0.2848 C.ar    
  31 C31           -4.6816     4.4307    -0.3164 C.ar    
  32 C32           -3.5779     3.6163    -0.4883 C.ar    
  33 O33           -4.8154     0.5035     0.9570 O.3     
  34 C34           -6.0285     0.0614     1.5695 C.3     
  35 C35           -5.8906    -1.4083     1.9718 C.3     
  36 N36           -4.8434    -1.5400     2.9936 N.3     
  37 C37           -5.3235    -1.0764     4.3023 C.3     
  38 C38           -4.3552    -2.9233     3.0718 C.3     
  39 H39            3.0620     0.4037    -0.6049 H       
  40 H40            1.5211     2.4581    -0.4627 H       
  41 H41           -2.6221     0.5069    -0.3279 H       
  42 H42            3.7085    -1.9389    -0.6978 H       
  43 H43           -1.3657    -2.5405    -0.3995 H       
  44 H44           -2.3290    -4.7872    -0.3906 H       
  45 H45           -0.8757    -6.7659    -0.5251 H       
  46 H46            1.5613    -6.5154    -0.6686 H       
  47 H47            3.0630    -7.4244    -0.0287 H       
  48 H48            3.2115    -8.7055     2.0688 H       
  49 H49            4.4745    -7.7990     3.9784 H       
  50 H50            5.5897    -5.6118     3.7901 H       
  51 H51            5.4481    -4.3344     1.6897 H       
  52 H52           -6.7639     2.2370     1.1815 H       
  53 H53           -6.6820     4.5764     0.4208 H       
  54 H54           -4.6502     5.4577    -0.6488 H       
  55 H55           -2.6855     4.0072    -0.9543 H       
  56 H56           -6.2284     0.6636     2.4558 H       
  57 H57           -6.8521     0.1692     0.8637 H       
  58 H58           -6.8384    -1.7652     2.3748 H       
  59 H59           -5.6214    -2.0006     1.0973 H       
  60 H60           -6.1845    -1.6722     4.6053 H       
  61 H61           -4.5287    -1.1850     5.0402 H       
  62 H62           -5.6137    -0.0281     4.2323 H       
  63 H63           -3.8631    -3.1884     2.1361 H       
  64 H64           -3.6448    -3.0120     3.8938 H       
  65 H65           -5.1955    -3.5960     3.2437 H       
@<TRIPOS>BOND
   1    1    2 2
   2    1    5 1
   3    1    6 1
   4    2    3 1
   5    3    4 2
   6    3   11 1
   7    4    5 1
   8    4   39 1
   9    5   40 1
  10    6    7 2
  11    6    8 am
  12    8   27 1
  13    8   41 1
  14    9   10 1
  15    9   17 1
  16    9   18 am
  17   10   11 2
  18   10   42 1
  19   11   12 1
  20   12   13 ar
  21   12   17 ar
  22   13   14 ar
  23   13   43 1
  24   14   15 ar
  25   14   44 1
  26   15   16 ar
  27   15   45 1
  28   16   17 ar
  29   16   46 1
  30   18   19 2
  31   18   20 2
  32   18   21 1
  33   21   22 ar
  34   21   26 ar
  35   22   23 ar
  36   22   47 1
  37   23   24 ar
  38   23   48 1
  39   24   25 ar
  40   24   49 1
  41   25   26 ar
  42   25   50 1
  43   26   51 1
  44   27   28 ar
  45   27   32 ar
  46   28   29 ar
  47   28   33 1
  48   29   30 ar
  49   29   52 1
  50   30   31 ar
  51   30   53 1
  52   31   32 ar
  53   31   54 1
  54   32   55 1
  55   33   34 1
  56   34   35 1
  57   34   56 1
  58   34   57 1
  59   35   36 1
  60   35   58 1
  61   35   59 1
  62   36   37 1
  63   36   38 1
  64   37   60 1
  65   37   61 1
  66   37   62 1
  67   38   63 1
  68   38   64 1
  69   38   65 1

#	End of record

