#	Name: ASD01148733
#	Creating user name:	WinNT
#	Creation time:	15. 06. 2019 19:03

#	Modifying user name:	WinNT
#	Modification time:	15. 06. 2019 19:03

#	Program:	/corina/corina34_cracker 3.40 0067  02.08.2006

@<TRIPOS>MOLECULE
ASD01148733
  53   56    0    0    0
SMALL
NO_CHARGES


@<TRIPOS>ATOM
   1 C1            -0.4364     0.8144    -0.2998 C.ar    
   2 C2            -0.2698    -0.5496    -0.1456 C.ar    
   3 C3             1.0002    -1.0885    -0.0789 C.ar    
   4 C4             2.1102    -0.2591    -0.1672 C.ar    
   5 C5             1.9397     1.1101    -0.3223 C.ar    
   6 C6             0.6672     1.6430    -0.3880 C.ar    
   7 S7            -2.0581     1.4973    -0.3912 S.o2    
   8 O8            -1.9338     2.7360    -1.0764 O.2     
   9 O9            -2.9109     0.4487    -0.8297 O.2     
  10 N10           -2.5238     1.8631     1.1553 N.am    
  11 N11            3.3997    -0.8026    -0.0993 N.pl3   
  12 C12            3.9584    -1.6076    -1.0274 C.2     
  13 C13            5.2323    -1.9327    -0.6061 C.2     
  14 C14            5.4350    -1.2828     0.6399 C.2     
  15 C15            4.2990    -0.5954     0.9210 C.2     
  16 C16            3.3045    -2.0714    -2.3035 C.3     
  17 C17            4.0661     0.2342     2.1229 C.ar    
  18 C18            2.7638     0.5249     2.5318 C.ar    
  19 C19            2.5528     1.2993     3.6537 C.ar    
  20 C20            3.6299     1.7879     4.3737 C.ar    
  21 C21            4.9242     1.5028     3.9728 C.ar    
  22 C22            5.1476     0.7247     2.8559 C.ar    
  23 Cl23           3.3565     2.7623     5.7842 Cl      
  24 C24            6.1966    -2.7904    -1.3137 C.2     
  25 C25            7.5707    -2.9437    -0.7921 C.ar    
  26 C26            8.2938    -4.1100    -1.0531 C.ar    
  27 C27            9.5752    -4.2471    -0.5637 C.ar    
  28 C28           10.1461    -3.2311     0.1856 C.ar    
  29 C29            9.4342    -2.0722     0.4478 C.ar    
  30 C30            8.1537    -1.9208    -0.0411 C.ar    
  31 O31            5.8625    -3.3730    -2.3279 O.2     
  32 C32           10.3566    -5.5049    -0.8439 C.3     
  33 Cl33          11.7601    -3.4114     0.7989 Cl      
  34 H34           -1.1336    -1.1942    -0.0771 H       
  35 H35            1.1296    -2.1539     0.0422 H       
  36 H36            2.8012     1.7578    -0.3909 H       
  37 H37            0.5339     2.7080    -0.5087 H       
  38 H38           -1.9240     1.6869     1.8970 H       
  39 H39           -3.3965     2.2536     1.3194 H       
  40 H40            6.3267    -1.3248     1.2478 H       
  41 H41            3.5190    -1.3601    -3.1010 H       
  42 H42            3.6950    -3.0518    -2.5763 H       
  43 H43            2.2266    -2.1378    -2.1561 H       
  44 H44            1.9230     0.1446     1.9708 H       
  45 H45            1.5454     1.5252     3.9709 H       
  46 H46            5.7605     1.8867     4.5382 H       
  47 H47            6.1576     0.4992     2.5467 H       
  48 H48            7.8497    -4.9028    -1.6367 H       
  49 H49            9.8845    -1.2837     1.0325 H       
  50 H50            7.6013    -1.0148     0.1599 H       
  51 H51           10.9182    -5.3849    -1.7703 H       
  52 H52           11.0473    -5.6942    -0.0222 H       
  53 H53            9.6694    -6.3453    -0.9418 H       
@<TRIPOS>BOND
   1    1    2 ar
   2    1    6 ar
   3    1    7 1
   4    2    3 ar
   5    2   34 1
   6    3    4 ar
   7    3   35 1
   8    4    5 ar
   9    4   11 1
  10    5    6 ar
  11    5   36 1
  12    6   37 1
  13    7    8 2
  14    7    9 2
  15    7   10 am
  16   10   38 1
  17   10   39 1
  18   11   12 1
  19   11   15 1
  20   12   13 2
  21   12   16 1
  22   13   14 1
  23   13   24 1
  24   14   15 2
  25   14   40 1
  26   15   17 1
  27   16   41 1
  28   16   42 1
  29   16   43 1
  30   17   18 ar
  31   17   22 ar
  32   18   19 ar
  33   18   44 1
  34   19   20 ar
  35   19   45 1
  36   20   21 ar
  37   20   23 1
  38   21   22 ar
  39   21   46 1
  40   22   47 1
  41   24   25 1
  42   24   31 2
  43   25   26 ar
  44   25   30 ar
  45   26   27 ar
  46   26   48 1
  47   27   28 ar
  48   27   32 1
  49   28   29 ar
  50   28   33 1
  51   29   30 ar
  52   29   49 1
  53   30   50 1
  54   32   51 1
  55   32   52 1
  56   32   53 1

#	End of record

