#	Name: ASD01410404
#	Creating user name:	WinNT
#	Creation time:	15. 06. 2019 19:17

#	Modifying user name:	WinNT
#	Modification time:	15. 06. 2019 19:17

#	Program:	/corina/corina34_cracker 3.40 0067  02.08.2006

@<TRIPOS>MOLECULE
ASD01410404
  36   38    0    0    0
SMALL
NO_CHARGES


@<TRIPOS>ATOM
   1 S1            -0.0145     1.7571    -0.0996 S.3     
   2 C2            -0.0019     0.0033     0.1547 C.2     
   3 N3             1.2728    -0.3522     0.3516 N.am    
   4 C4             2.2186     0.5720     0.3265 C.2     
   5 C5             1.7424     1.9382     0.0751 C.2     
   6 S6            -1.3613    -1.0374     0.1498 S.2     
   7 O7             3.3945     0.3100     0.4987 O.2     
   8 N8             1.6034    -1.6938     0.5833 N.am    
   9 S9             1.9604    -2.6904    -0.6902 S.o2    
  10 O10            2.3954    -3.9205    -0.1273 O.2     
  11 O11            0.8688    -2.5924    -1.5947 O.2     
  12 C12            3.3552    -2.0008    -1.5171 C.ar    
  13 C13            4.6335    -2.3664    -1.1386 C.ar    
  14 C14            5.7277    -1.8253    -1.7873 C.ar    
  15 C15            5.5436    -0.9190    -2.8147 C.ar    
  16 C16            4.2653    -0.5541    -3.1938 C.ar    
  17 C17            3.1710    -1.0984    -2.5480 C.ar    
  18 C18            2.4764     3.0764    -0.0055 C.2     
  19 C19           -0.1482     5.7427     0.2254 C.ar    
  20 C20            0.5351     6.8359    -0.2858 C.ar    
  21 C21            0.4764     4.5182     0.3197 C.ar    
  22 C22            1.8036     4.3790    -0.1029 C.ar    
  23 C23            2.4871     5.4865    -0.6183 C.ar    
  24 C24            1.8502     6.7051    -0.7063 C.ar    
  25 F25           -0.0835     8.0336    -0.3754 F       
  26 H26            1.6231    -2.0389     1.4896 H       
  27 H27            4.7772    -3.0745    -0.3359 H       
  28 H28            6.7264    -2.1104    -1.4912 H       
  29 H29            6.3986    -0.4958    -3.3211 H       
  30 H30            4.1215     0.1542    -3.9963 H       
  31 H31            2.1722    -0.8161    -2.8466 H       
  32 H32            3.5551     3.0250     0.0020 H       
  33 H33           -1.1709     5.8525     0.5549 H       
  34 H34           -0.0568     3.6678     0.7183 H       
  35 H35            3.5113     5.3862    -0.9458 H       
  36 H36            2.3762     7.5604    -1.1041 H       
@<TRIPOS>BOND
   1    1    2 1
   2    1    5 1
   3    2    3 am
   4    2    6 2
   5    3    4 am
   6    3    8 1
   7    4    5 1
   8    4    7 2
   9    5   18 2
  10    8    9 am
  11    8   26 1
  12    9   10 2
  13    9   11 2
  14    9   12 1
  15   12   13 ar
  16   12   17 ar
  17   13   14 ar
  18   13   27 1
  19   14   15 ar
  20   14   28 1
  21   15   16 ar
  22   15   29 1
  23   16   17 ar
  24   16   30 1
  25   17   31 1
  26   18   22 1
  27   18   32 1
  28   19   20 ar
  29   19   21 ar
  30   19   33 1
  31   20   24 ar
  32   20   25 1
  33   21   22 ar
  34   21   34 1
  35   22   23 ar
  36   23   24 ar
  37   23   35 1
  38   24   36 1

#	End of record

