#	Name: ASD01810697
#	Creating user name:	WinNT
#	Creation time:	15. 06. 2019 19:25

#	Modifying user name:	WinNT
#	Modification time:	15. 06. 2019 19:25

#	Program:	/corina/corina34_cracker 3.40 0067  02.08.2006

@<TRIPOS>MOLECULE
ASD01810697
  67   72    0    0    0
SMALL
NO_CHARGES


@<TRIPOS>ATOM
   1 C1            -0.0057     1.2393     0.0162 C.ar    
   2 C2            -0.0240    -0.1525    -0.1017 C.ar    
   3 C3            -1.3105    -0.8811    -0.0808 C.2     
   4 N4            -2.2668    -0.5347     0.8035 N.am    
   5 O5            -1.5056    -1.7924    -0.8611 O.2     
   6 C6            -2.0056     0.4865     1.8270 C.3     
   7 C7             1.1726    -0.8525    -0.2393 C.ar    
   8 C8             2.3802    -0.1583    -0.2585 C.ar    
   9 C9             2.3843     1.2328    -0.1398 C.ar    
  10 C10            1.1946     1.9209    -0.0036 C.ar    
  11 C11            3.6899     1.9852    -0.1599 C.3     
  12 C12            3.6556    -0.8936    -0.4038 C.2     
  13 N13            4.8336    -0.3371    -0.5591 N.2     
  14 C14           -2.3429    -0.0968     3.2028 C.3     
  15 C15           -3.7803    -0.6219     3.1914 C.3     
  16 C16           -3.9101    -1.7354     2.1496 C.3     
  17 C17           -3.5924    -1.1667     0.7583 C.3     
  18 C18           -4.1270    -1.1656     4.5534 C.ar    
  19 C19           -5.1792    -0.6183     5.2660 C.ar    
  20 C20           -5.5023    -1.1115     6.5131 C.ar    
  21 C21           -4.7648    -2.1655     7.0560 C.ar    
  22 C22           -3.7042    -2.7131     6.3314 C.ar    
  23 C23           -3.3953    -2.2137     5.0831 C.ar    
  24 C24           -5.0942    -2.6823     8.3503 C.1     
  25 N25           -5.3556    -3.0922     9.3770 N.1     
  26 C26            5.7774    -1.2904    -0.6596 C.ar    
  27 C27            5.1271    -2.5379    -0.5578 C.ar    
  28 N28            3.7841    -2.2551    -0.3904 N.pl3   
  29 C29            7.1663    -1.2808    -0.8313 C.ar    
  30 C30            7.8363    -2.4900    -0.8932 C.ar    
  31 N31            7.1846    -3.6419    -0.7929 N.ar    
  32 C32            5.8765    -3.6988    -0.6308 C.ar    
  33 N33            9.2194    -2.4984    -1.0643 N.3     
  34 C34            9.7384    -3.8779    -1.1045 C.3     
  35 C35           10.4979    -4.0419    -2.4378 C.3     
  36 C36           10.8513    -2.5806    -2.8208 C.3     
  37 C37            9.6023    -1.8146    -2.3179 C.3     
  38 H38           -0.9329     1.7837     0.1184 H       
  39 H39           -0.9539     0.7715     1.7988 H       
  40 H40           -2.6284     1.3609     1.6381 H       
  41 H41            1.1641    -1.9286    -0.3304 H       
  42 H42            1.2034     2.9970     0.0879 H       
  43 H43            3.9982     2.1505    -1.1922 H       
  44 H44            3.5635     2.9456     0.3398 H       
  45 H45            4.4524     1.4036     0.3583 H       
  46 H46           -1.6586    -0.9145     3.4289 H       
  47 H47           -2.2454     0.6801     3.9611 H       
  48 H48           -4.4619     0.1910     2.9408 H       
  49 H49           -3.2111    -2.5378     2.3857 H       
  50 H50           -4.9282    -2.1249     2.1583 H       
  51 H51           -4.3461    -0.4284     0.4846 H       
  52 H52           -3.5862    -1.9742     0.0262 H       
  53 H53           -5.7487     0.1971     4.8450 H       
  54 H54           -6.3237    -0.6832     7.0684 H       
  55 H55           -3.1294    -3.5282     6.7457 H       
  56 H56           -2.5753    -2.6362     4.5216 H       
  57 H57            3.0674    -2.9008    -0.2887 H       
  58 H58            7.7046    -0.3482    -0.9142 H       
  59 H59            5.3872    -4.6584    -0.5534 H       
  60 H60           10.4176    -4.0431    -0.2681 H       
  61 H61            8.9116    -4.5867    -1.0592 H       
  62 H62           11.4029    -4.6327    -2.2957 H       
  63 H63            9.8560    -4.4940    -3.1939 H       
  64 H64           11.7494    -2.2471    -2.3010 H       
  65 H65           10.9651    -2.4764    -3.8998 H       
  66 H66            8.7962    -1.8820    -3.0485 H       
  67 H67            9.8507    -0.7718    -2.1208 H       
@<TRIPOS>BOND
   1    1    2 ar
   2    1   10 ar
   3    1   38 1
   4    2    3 1
   5    2    7 ar
   6    3    4 am
   7    3    5 2
   8    4    6 1
   9    4   17 1
  10    6   14 1
  11    6   39 1
  12    6   40 1
  13    7    8 ar
  14    7   41 1
  15    8    9 ar
  16    8   12 1
  17    9   10 ar
  18    9   11 1
  19   10   42 1
  20   11   43 1
  21   11   44 1
  22   11   45 1
  23   12   13 2
  24   12   28 1
  25   13   26 1
  26   14   15 1
  27   14   46 1
  28   14   47 1
  29   15   16 1
  30   15   18 1
  31   15   48 1
  32   16   17 1
  33   16   49 1
  34   16   50 1
  35   17   51 1
  36   17   52 1
  37   18   19 ar
  38   18   23 ar
  39   19   20 ar
  40   19   53 1
  41   20   21 ar
  42   20   54 1
  43   21   22 ar
  44   21   24 1
  45   22   23 ar
  46   22   55 1
  47   23   56 1
  48   24   25 3
  49   26   27 ar
  50   26   29 ar
  51   27   28 1
  52   27   32 ar
  53   28   57 1
  54   29   30 ar
  55   29   58 1
  56   30   31 ar
  57   30   33 1
  58   31   32 ar
  59   32   59 1
  60   33   34 1
  61   33   37 1
  62   34   35 1
  63   34   60 1
  64   34   61 1
  65   35   36 1
  66   35   62 1
  67   35   63 1
  68   36   37 1
  69   36   64 1
  70   36   65 1
  71   37   66 1
  72   37   67 1

#	End of record

