#	Name: ASD02038109
#	Creating user name:	WinNT
#	Creation time:	15. 06. 2019 20:16

#	Modifying user name:	WinNT
#	Modification time:	15. 06. 2019 20:16

#	Program:	/corina/corina34_cracker 3.40 0067  02.08.2006

@<TRIPOS>MOLECULE
ASD02038109
  48   50    0    0    0
SMALL
NO_CHARGES


@<TRIPOS>ATOM
   1 C1            -0.1690     1.1589     0.1082 C.ar    
   2 C2            -0.0901    -0.2188    -0.0057 C.ar    
   3 C3             0.9870     1.9155     0.1991 C.ar    
   4 C4             2.2219     1.2971     0.1759 C.ar    
   5 C5             2.3034    -0.0845     0.0617 C.ar    
   6 C6             1.1426    -0.8414    -0.0288 C.ar    
   7 N7             3.5524    -0.7126     0.0380 N.3     
   8 C8             6.8916    -3.1240     0.9769 C.3     
   9 C9             6.7034    -4.6379     1.0925 C.3     
  10 C10            8.0588    -5.3329     0.9480 C.3     
  11 O11            6.1407    -4.9520     2.3680 O.3     
  12 O12            7.8694    -6.7492     0.9393 O.3     
  13 C13            8.9828    -7.5202     0.8168 C.ar    
  14 C14            8.8708    -8.9026     0.8012 C.ar    
  15 C15           10.0018    -9.6858     0.6768 C.ar    
  16 C16           11.2494    -9.0898     0.5670 C.ar    
  17 C17           11.3613    -7.7074     0.5817 C.ar    
  18 C18           10.2299    -6.9242     0.7017 C.ar    
  19 F19           -1.3757     1.7662     0.1250 F       
  20 O20           12.3629    -9.8609     0.4455 O.3     
  21 C21            3.4069    -2.1695    -0.0878 C.3     
  22 C22            4.7928    -2.8110    -0.1901 C.3     
  23 N23            5.5794    -2.4641     1.0018 N.3     
  24 C24            5.7249    -1.0072     1.1276 C.3     
  25 C25            4.3390    -0.3657     1.2299 C.3     
  26 H26           -0.9931    -0.8071    -0.0760 H       
  27 H27            0.9232     2.9899     0.2879 H       
  28 H28            3.1234     1.8877     0.2461 H       
  29 H29            1.2037    -1.9161    -0.1173 H       
  30 H30            7.4934    -2.7677     1.8130 H       
  31 H31            7.3976    -2.8913     0.0399 H       
  32 H32            6.0330    -4.9819     0.3049 H       
  33 H33            8.5281    -5.0233     0.0142 H       
  34 H34            8.6996    -5.0572     1.7856 H       
  35 H35            6.6851    -4.6741     3.1172 H       
  36 H36            7.8994    -9.3667     0.8867 H       
  37 H37            9.9147   -10.7622     0.6654 H       
  38 H38           12.3328    -7.2434     0.4962 H       
  39 H39           10.3170    -5.8478     0.7131 H       
  40 H40           12.6000   -10.0680    -0.4688 H       
  41 H41            2.8891    -2.5603     0.7882 H       
  42 H42            2.8318    -2.4015    -0.9842 H       
  43 H43            4.6884    -3.8941    -0.2543 H       
  44 H44            5.3000    -2.4407    -1.0810 H       
  45 H45            6.3000    -0.7752     2.0240 H       
  46 H46            6.2427    -0.6164     0.2516 H       
  47 H47            4.4435     0.7173     1.2941 H       
  48 H48            3.8318    -0.7360     2.1208 H       
@<TRIPOS>BOND
   1    1    2 ar
   2    1    3 ar
   3    1   19 1
   4    2    6 ar
   5    2   26 1
   6    3    4 ar
   7    3   27 1
   8    4    5 ar
   9    4   28 1
  10    5    6 ar
  11    5    7 1
  12    6   29 1
  13    7   21 1
  14    7   25 1
  15    8    9 1
  16    8   23 1
  17    8   30 1
  18    8   31 1
  19    9   11 1
  20    9   10 1
  21    9   32 1
  22   10   12 1
  23   10   33 1
  24   10   34 1
  25   11   35 1
  26   12   13 1
  27   13   14 ar
  28   13   18 ar
  29   14   15 ar
  30   14   36 1
  31   15   16 ar
  32   15   37 1
  33   16   17 ar
  34   16   20 1
  35   17   18 ar
  36   17   38 1
  37   18   39 1
  38   20   40 1
  39   21   22 1
  40   21   41 1
  41   21   42 1
  42   22   23 1
  43   22   43 1
  44   22   44 1
  45   23   24 1
  46   24   25 1
  47   24   45 1
  48   24   46 1
  49   25   47 1
  50   25   48 1

#	End of record

