#	Name: ASD05720111
#	Creating user name:	WinNT
#	Creation time:	15. 06. 2019 21:01

#	Modifying user name:	WinNT
#	Modification time:	15. 06. 2019 21:01

#	Program:	/corina/corina34_cracker 3.40 0067  02.08.2006

@<TRIPOS>MOLECULE
ASD05720111
  52   57    0    0    0
SMALL
NO_CHARGES


@<TRIPOS>ATOM
   1 O1            -0.0161     1.3334     0.0094 O.3     
   2 C2             0.0021    -0.0041     0.0020 C.2     
   3 N3             1.2348    -0.5293    -0.0126 N.am    
   4 C4             2.2183     0.5645    -0.0161 C.3     
   5 C5             1.3508     1.8379    -0.0010 C.3     
   6 O6            -1.0069    -0.6808     0.0087 O.2     
   7 C7             3.0997    -3.5830    -0.0460 C.2     
   8 N8             2.7934    -2.2820    -0.0360 N.2     
   9 C9             1.5348    -1.8852    -0.0223 C.2     
  10 C10            0.4948    -2.8369    -0.0171 C.2     
  11 C11            0.8012    -4.1541    -0.0267 C.2     
  12 N12            2.1143    -4.5345    -0.0412 N.pl3   
  13 N13            2.7294    -5.7914    -0.0540 N.2     
  14 C14            4.0305    -5.6364    -0.0661 C.2     
  15 C15            4.3226    -4.2670    -0.0674 C.2     
  16 C16            5.6706    -3.6561    -0.0859 C.ar    
  17 C17            6.6416    -4.0791     0.8236 C.ar    
  18 C18            7.8955    -3.5104     0.8059 C.ar    
  19 C19            8.1956    -2.5119    -0.1206 C.ar    
  20 C20            7.2260    -2.0887    -1.0296 C.ar    
  21 C21            5.9735    -2.6607    -1.0167 C.ar    
  22 N22           11.6241    -1.3954     0.3003 N.pl3   
  23 N23           10.5407    -2.2118     0.6636 N.2     
  24 C24            9.5462    -1.8994    -0.1388 C.2     
  25 N25            9.9561    -0.9365    -0.9758 N.2     
  26 C26           11.2000    -0.6283    -0.7200 C.2     
  27 C27           12.0189     0.4093    -1.4437 C.3     
  28 C28            3.0621     0.5136    -1.2636 C.ar    
  29 C29            4.4174     0.7765    -1.1919 C.ar    
  30 C30            5.1924     0.7297    -2.3352 C.ar    
  31 C31            4.6109     0.4193    -3.5528 C.ar    
  32 C32            3.2534     0.1562    -3.6234 C.ar    
  33 C33            2.4814     0.1984    -2.4779 C.ar    
  34 F34            5.3674     0.3737    -4.6712 F       
  35 H35            2.8457     0.5180     0.8740 H       
  36 H36            1.5314     2.4339    -0.8956 H       
  37 H37            1.5485     2.4243     0.8964 H       
  38 H38           -0.5367    -2.5172    -0.0052 H       
  39 H39            0.0174    -4.8972    -0.0225 H       
  40 H40            4.7584    -6.4342    -0.0770 H       
  41 H41            6.4092    -4.8521     1.5413 H       
  42 H42            8.6466    -3.8373     1.5097 H       
  43 H43            7.4591    -1.3155    -1.7467 H       
  44 H44            5.2243    -2.3363    -1.7238 H       
  45 H45           12.5043    -1.3840     0.7080 H       
  46 H46           12.5312    -0.0551    -2.2864 H       
  47 H47           11.3634     1.2002    -1.8082 H       
  48 H48           12.7545     0.8333    -0.7602 H       
  49 H49            4.8707     1.0190    -0.2421 H       
  50 H50            6.2511     0.9355    -2.2790 H       
  51 H51            2.7987    -0.0861    -4.5726 H       
  52 H52            1.4232    -0.0109    -2.5321 H       
@<TRIPOS>BOND
   1    1    2 1
   2    1    5 1
   3    2    3 am
   4    2    6 2
   5    3    4 1
   6    3    9 1
   7    4    5 1
   8    4   28 1
   9    4   35 1
  10    5   36 1
  11    5   37 1
  12    7    8 1
  13    7   12 1
  14    7   15 2
  15    8    9 2
  16    9   10 1
  17   10   11 2
  18   10   38 1
  19   11   12 1
  20   11   39 1
  21   12   13 1
  22   13   14 2
  23   14   15 1
  24   14   40 1
  25   15   16 1
  26   16   17 ar
  27   16   21 ar
  28   17   18 ar
  29   17   41 1
  30   18   19 ar
  31   18   42 1
  32   19   20 ar
  33   19   24 1
  34   20   21 ar
  35   20   43 1
  36   21   44 1
  37   22   23 1
  38   22   26 1
  39   22   45 1
  40   23   24 2
  41   24   25 1
  42   25   26 2
  43   26   27 1
  44   27   46 1
  45   27   47 1
  46   27   48 1
  47   28   29 ar
  48   28   33 ar
  49   29   30 ar
  50   29   49 1
  51   30   31 ar
  52   30   50 1
  53   31   32 ar
  54   31   34 1
  55   32   33 ar
  56   32   51 1
  57   33   52 1

#	End of record

