#	Name: ASD07300672
#	Creating user name:	WinNT
#	Creation time:	15. 06. 2019 21:10

#	Modifying user name:	WinNT
#	Modification time:	15. 06. 2019 21:10

#	Program:	/corina/corina34_cracker 3.40 0067  02.08.2006

@<TRIPOS>MOLECULE
ASD07300672
  28   28    0    0    0
SMALL
NO_CHARGES


@<TRIPOS>ATOM
   1 C1            -0.0168     1.3849     0.0097 C.ar    
   2 C2             0.0021    -0.0041     0.0020 C.ar    
   3 C3             1.2198    -0.6610    -0.0132 C.ar    
   4 C4             2.3824     0.0992    -0.0202 C.ar    
   5 C5             2.2882     1.4772    -0.0119 C.ar    
   6 N6             1.1116     2.0745     0.0026 N.ar    
   7 O7            -1.2047     2.0406     0.0188 O.3     
   8 C8            -1.1574     3.4688     0.0264 C.3     
   9 C9            -2.5822     4.0262     0.0361 C.3     
  10 C10           -3.3259     3.5471    -1.2122 C.3     
  11 C11           -3.3140     3.5336     1.2862 C.3     
  12 O12           -2.5349     5.4544     0.0437 O.3     
  13 C13           -3.8204     6.0785     0.0531 C.3     
  14 Br14           4.0752    -0.7432    -0.0404 Br      
  15 H15           -0.9215    -0.5638     0.0082 H       
  16 H16            1.2654    -1.7400    -0.0191 H       
  17 H17            3.1888     2.0733    -0.0174 H       
  18 H18           -0.6276     3.8101     0.9157 H       
  19 H19           -0.6360     3.8198    -0.8642 H       
  20 H20           -3.3619     2.4578    -1.2180 H       
  21 H21           -4.3409     3.9443    -1.2053 H       
  22 H22           -2.8045     3.8981    -2.1028 H       
  23 H23           -2.7843     3.8749     2.1755 H       
  24 H24           -4.3291     3.9307     1.2932 H       
  25 H25           -3.3501     2.4442     1.2804 H       
  26 H26           -4.3759     5.7798    -0.8359 H       
  27 H27           -4.3675     5.7701     0.9441 H       
  28 H28           -3.6984     7.1616     0.0585 H       
@<TRIPOS>BOND
   1    1    2 ar
   2    1    6 ar
   3    1    7 1
   4    2    3 ar
   5    2   15 1
   6    3    4 ar
   7    3   16 1
   8    4    5 ar
   9    4   14 1
  10    5    6 ar
  11    5   17 1
  12    7    8 1
  13    8    9 1
  14    8   18 1
  15    8   19 1
  16    9   10 1
  17    9   11 1
  18    9   12 1
  19   10   20 1
  20   10   21 1
  21   10   22 1
  22   11   23 1
  23   11   24 1
  24   11   25 1
  25   12   13 1
  26   13   26 1
  27   13   27 1
  28   13   28 1

#	End of record

