#	Name: ASD03082233
#	Creating user name:	WinNT
#	Creation time:	15. 06. 2019 20:27

#	Modifying user name:	WinNT
#	Modification time:	15. 06. 2019 20:27

#	Program:	/corina/corina34_cracker 3.40 0067  02.08.2006

@<TRIPOS>MOLECULE
ASD03082233
  54   56    0    0    0
SMALL
NO_CHARGES


@<TRIPOS>ATOM
   1 N1             0.0088     1.1997    -0.5065 N.am    
   2 N2             0.1635    -0.1823    -0.3101 N.2     
   3 C3             1.4030    -0.3801     0.0715 C.2     
   4 N4             2.0406     0.7929     0.1280 N.2     
   5 C5             1.2190     1.7636    -0.2169 C.2     
   6 N6             1.9664    -1.6193     0.3714 N.pl3   
   7 C7             1.1658    -2.7662     0.3869 C.ar    
   8 C8             1.7158    -4.0028     0.0737 C.ar    
   9 C9             0.9237    -5.1337     0.0901 C.ar    
  10 C10           -0.4183    -5.0358     0.4181 C.ar    
  11 C11           -0.9687    -3.8044     0.7306 C.ar    
  12 C12           -0.1787    -2.6713     0.7210 C.ar    
  13 C13            1.5198    -6.4755    -0.2495 C.3     
  14 F14            2.8786    -6.3210    -0.5442 F       
  15 F15            1.3744    -7.3399     0.8408 F       
  16 F16            0.8597    -7.0113    -1.3606 F       
  17 C17            2.9646     4.9869    -1.0601 C.ar    
  18 C18            2.6638     3.6373    -1.0059 C.ar    
  19 C19            1.5470     3.2014    -0.2793 C.ar    
  20 C20            0.7460     4.1323     0.3849 C.ar    
  21 C21            1.0549     5.4736     0.3241 C.ar    
  22 C22            2.1628     5.9043    -0.3963 C.ar    
  23 C23           -1.1076     1.8402    -0.9061 C.2     
  24 N24           -2.2003     1.1341    -1.2582 N.am    
  25 F25           -1.1917    -6.1435     0.4326 F       
  26 C26           -3.4138     1.8304    -1.6926 C.3     
  27 O27           -1.1291     3.0545    -0.9489 O.2     
  28 O28            3.4471     2.7384    -1.6552 O.3     
  29 C29           -3.3150     2.1437    -3.1869 C.3     
  30 C30           -4.6316     0.9400    -1.4376 C.3     
  31 C31            4.5673     3.2554    -2.3762 C.3     
  32 O32            2.4609     7.2280    -0.4516 O.3     
  33 C33            1.5941     8.1183     0.2542 C.3     
  34 H34            2.9136    -1.6863     0.5693 H       
  35 H35            2.7621    -4.0795    -0.1828 H       
  36 H36           -2.0155    -3.7303     0.9857 H       
  37 H37           -0.6074    -1.7116     0.9692 H       
  38 H38            3.8268     5.3259    -1.6153 H       
  39 H39           -0.1156     3.8012     0.9457 H       
  40 H40            0.4345     6.1926     0.8383 H       
  41 H41           -2.1831     0.1649    -1.2241 H       
  42 H42           -3.5196     2.7597    -1.1328 H       
  43 H43           -4.2179     2.6617    -3.5100 H       
  44 H44           -2.4474     2.7780    -3.3685 H       
  45 H45           -3.2092     1.2144    -3.7467 H       
  46 H46           -4.7021     0.7168    -0.3730 H       
  47 H47           -5.5346     1.4581    -1.7608 H       
  48 H48           -4.5259     0.0107    -1.9974 H       
  49 H49            5.1071     2.4338    -2.8469 H       
  50 H50            4.2182     3.9472    -3.1427 H       
  51 H51            5.2312     3.7797    -1.6888 H       
  52 H52            1.9446     9.1427     0.1281 H       
  53 H53            0.5821     8.0293    -0.1408 H       
  54 H54            1.5946     7.8620     1.3136 H       
@<TRIPOS>BOND
   1    1    2 1
   2    1    5 1
   3    1   23 am
   4    2    3 2
   5    3    4 1
   6    3    6 1
   7    4    5 2
   8    5   19 1
   9    6    7 1
  10    6   34 1
  11    7    8 ar
  12    7   12 ar
  13    8    9 ar
  14    8   35 1
  15    9   10 ar
  16    9   13 1
  17   10   11 ar
  18   10   25 1
  19   11   12 ar
  20   11   36 1
  21   12   37 1
  22   13   14 1
  23   13   15 1
  24   13   16 1
  25   17   18 ar
  26   17   22 ar
  27   17   38 1
  28   18   19 ar
  29   18   28 1
  30   19   20 ar
  31   20   21 ar
  32   20   39 1
  33   21   22 ar
  34   21   40 1
  35   22   32 1
  36   23   24 am
  37   23   27 2
  38   24   26 1
  39   24   41 1
  40   26   29 1
  41   26   30 1
  42   26   42 1
  43   28   31 1
  44   29   43 1
  45   29   44 1
  46   29   45 1
  47   30   46 1
  48   30   47 1
  49   30   48 1
  50   31   49 1
  51   31   50 1
  52   31   51 1
  53   32   33 1
  54   33   52 1
  55   33   53 1
  56   33   54 1

#	End of record

