#	Name: ASD01885765
#	Creating user name:	WinNT
#	Creation time:	15. 06. 2019 19:50

#	Modifying user name:	WinNT
#	Modification time:	15. 06. 2019 19:50

#	Program:	/corina/corina34_cracker 3.40 0067  02.08.2006

@<TRIPOS>MOLECULE
ASD01885765
  61   63    0    0    0
SMALL
NO_CHARGES


@<TRIPOS>ATOM
   1 C1            -0.0160     1.3294     0.0094 C.ar    
   2 C2            -1.2520     2.0240     0.0189 C.ar    
   3 C3            -2.4596     1.2809     0.0205 C.ar    
   4 C4            -2.3700    -0.1047     0.0125 C.ar    
   5 C5            -1.1108    -0.7138     0.0033 C.ar    
   6 N6             0.0021    -0.0041     0.0020 N.ar    
   7 C7             1.1364     3.4285     0.0097 C.ar    
   8 C8            -0.0805     4.1065     0.0258 C.ar    
   9 C9            -1.2606     3.4246     0.0271 C.ar    
  10 C10           -3.7749     1.9611     0.0308 C.2     
  11 C11           -1.0240    -2.1941    -0.0047 C.2     
  12 C12            2.4227     4.2136     0.0097 C.3     
  13 N13            2.8503     4.4530     1.3945 N.3     
  14 C14            1.1821     2.0685     0.0019 C.ar    
  15 N15            0.1806    -2.7985    -0.0130 N.am    
  16 O16           -2.0389    -2.8621    -0.0037 O.2     
  17 C17            4.2124     5.0045     1.4375 C.3     
  18 C18            4.6394     5.1822     2.8970 C.3     
  19 O19            3.6942     6.0213     3.5662 O.3     
  20 C20            2.3572     5.5140     3.5442 C.3     
  21 C21            1.9071     5.3397     2.0913 C.3     
  22 C22           -4.1737     2.9926     0.9058 C.2     
  23 N23           -5.3982     3.3304     0.6020 N.2     
  24 N24           -5.8277     2.5369    -0.4684 N.pl3   
  25 C25           -4.8227     1.7081    -0.8100 C.2     
  26 C26            6.0244     5.8302     2.9488 C.3     
  27 F27            5.9783     7.0798     2.3214 F       
  28 F28            6.4138     5.9922     4.2827 F       
  29 F29            6.9474     5.0112     2.2897 F       
  30 C30            2.3119     4.1619     4.2588 C.3     
  31 C31           -7.1422     2.6024    -1.1118 C.3     
  32 H32           -3.2660    -0.7077     0.0137 H       
  33 H33           -0.0889     5.1864     0.0378 H       
  34 H34           -2.1976     3.9616     0.0341 H       
  35 H35            3.1929     3.6491    -0.5159 H       
  36 H36            2.2657     5.1683    -0.4923 H       
  37 H37            2.1338     1.5582    -0.0097 H       
  38 H38            0.9908    -2.2651    -0.0139 H       
  39 H39            0.2373    -3.7668    -0.0182 H       
  40 H40            4.8982     4.3199     0.9384 H       
  41 H41            4.2301     5.9705     0.9330 H       
  42 H42            4.6735     4.2093     3.3873 H       
  43 H43            1.6933     6.2157     4.0492 H       
  44 H44            1.8879     6.3111     1.5972 H       
  45 H45            0.9100     4.8997     2.0695 H       
  46 H46           -3.5719     3.4271     1.6902 H       
  47 H47           -4.8419     0.9749    -1.6027 H       
  48 H48            2.6362     4.2860     5.2920 H       
  49 H49            1.2927     3.7758     4.2417 H       
  50 H50            2.9747     3.4606     3.7518 H       
  51 H51           -7.8253     1.9144    -0.6135 H       
  52 H52           -7.5320     3.6177    -1.0393 H       
  53 H53           -7.0473     2.3237    -2.1613 H       
  54 C54           12.9493    13.9869    11.1972 C.3     
  55 C55           12.9700    12.4571    11.1888 C.3     
  56 H56           13.9719    14.3642    11.1895 H       
  57 H57           12.4221    14.3480    10.3142 H       
  58 H58           12.4391    14.3384    12.0940 H       
  59 H59           13.4972    12.0960    12.0719 H       
  60 H60           11.9474    12.0798    11.1966 H       
  61 H61           13.4802    12.1056    10.2920 H       
@<TRIPOS>BOND
   1    1    6 ar
   2    1   14 ar
   3    1    2 ar
   4    2    3 ar
   5    2    9 ar
   6    3   10 1
   7    3    4 ar
   8    4    5 ar
   9    4   32 1
  10    5   11 1
  11    5    6 ar
  12    7   12 1
  13    7    8 ar
  14    7   14 ar
  15    8    9 ar
  16    8   33 1
  17    9   34 1
  18   10   25 2
  19   10   22 1
  20   11   15 am
  21   11   16 2
  22   12   13 1
  23   12   35 1
  24   12   36 1
  25   13   17 1
  26   13   21 1
  27   14   37 1
  28   15   38 1
  29   15   39 1
  30   17   18 1
  31   17   40 1
  32   17   41 1
  33   18   19 1
  34   18   26 1
  35   18   42 1
  36   19   20 1
  37   20   21 1
  38   20   30 1
  39   20   43 1
  40   21   44 1
  41   21   45 1
  42   22   23 2
  43   22   46 1
  44   23   24 1
  45   24   25 1
  46   24   31 1
  47   25   47 1
  48   26   27 1
  49   26   28 1
  50   26   29 1
  51   30   48 1
  52   30   49 1
  53   30   50 1
  54   31   51 1
  55   31   52 1
  56   31   53 1
  57   54   55 1
  58   54   56 1
  59   54   57 1
  60   54   58 1
  61   55   59 1
  62   55   60 1
  63   55   61 1

#	End of record

