#	Name: ASD01910658
#	Creating user name:	WinNT
#	Creation time:	15. 06. 2019 19:56

#	Modifying user name:	WinNT
#	Modification time:	15. 06. 2019 19:56

#	Program:	/corina/corina34_cracker 3.40 0067  02.08.2006

@<TRIPOS>MOLECULE
ASD01910658
  32   34    0    0    0
SMALL
NO_CHARGES


@<TRIPOS>ATOM
   1 C1            -0.0167     1.3788     0.0096 C.ar    
   2 C2             0.0021    -0.0041     0.0020 C.ar    
   3 C3             1.2059    -0.6875    -0.0131 C.ar    
   4 C4             2.3975     0.0059    -0.0208 C.ar    
   5 C5             2.3894     1.4037    -0.0132 C.ar    
   6 C6             1.1689     2.0888     0.0021 C.ar    
   7 C7             3.6231     2.1308    -0.0206 C.1     
   8 C8             4.6344     2.7269    -0.0266 C.1     
   9 C9             5.8681     3.4540    -0.0340 C.ar    
  10 C10            5.8545     4.8540    -0.0263 C.ar    
  11 C11            7.0310     5.5437    -0.0327 C.ar    
  12 C12            8.2480     4.8519    -0.0463 C.ar    
  13 C13            8.2640     3.4568    -0.0544 C.ar    
  14 C14            7.0859     2.7641    -0.0430 C.ar    
  15 C15            7.0427     7.0496    -0.0265 C.3     
  16 C16            8.2428     7.5566     0.7700 C.3     
  17 N17            9.4781     6.9241     0.3157 N.am    
  18 C18            9.5051     5.6272    -0.0507 C.2     
  19 O19           10.5512     5.1021    -0.3799 O.2     
  20 F20            1.1500     3.4397     0.0091 F       
  21 H21           -0.9598     1.9049     0.0169 H       
  22 H22           -0.9275    -0.5538     0.0083 H       
  23 H23            1.2116    -1.7675    -0.0186 H       
  24 H24            3.3353    -0.5298    -0.0322 H       
  25 H25            4.9149     5.3863    -0.0158 H       
  26 H26            9.2044     2.9259    -0.0659 H       
  27 H27            7.0946     1.6841    -0.0487 H       
  28 H28            7.1077     7.4154    -1.0512 H       
  29 H29            6.1237     7.4170     0.4302 H       
  30 H30            8.3259     8.6361     0.6437 H       
  31 H31            8.0926     7.3312     1.8258 H       
  32 H32           10.2943     7.4468     0.2768 H       
@<TRIPOS>BOND
   1    1    2 ar
   2    1    6 ar
   3    1   21 1
   4    2    3 ar
   5    2   22 1
   6    3    4 ar
   7    3   23 1
   8    4    5 ar
   9    4   24 1
  10    5    6 ar
  11    5    7 1
  12    6   20 1
  13    7    8 3
  14    8    9 1
  15    9   10 ar
  16    9   14 ar
  17   10   11 ar
  18   10   25 1
  19   11   12 ar
  20   11   15 1
  21   12   13 ar
  22   12   18 1
  23   13   14 ar
  24   13   26 1
  25   14   27 1
  26   15   16 1
  27   15   28 1
  28   15   29 1
  29   16   17 1
  30   16   30 1
  31   16   31 1
  32   17   18 am
  33   17   32 1
  34   18   19 2

#	End of record

