#	Name: ASD03730032
#	Creating user name:	WinNT
#	Creation time:	15. 06. 2019 20:43

#	Modifying user name:	WinNT
#	Modification time:	15. 06. 2019 20:43

#	Program:	/corina/corina34_cracker 3.40 0067  02.08.2006

@<TRIPOS>MOLECULE
ASD03730032
  30   32    0    0    0
SMALL
NO_CHARGES


@<TRIPOS>ATOM
   1 C1            -0.0168     1.3888     0.0097 C.2     
   2 C2             0.0021    -0.0041     0.0020 C.2     
   3 C3             1.2192    -0.6846    -0.0137 C.2     
   4 C4             2.4146     0.0319    -0.0083 C.2     
   5 C5             2.3956     1.4276     0.0134 C.2     
   6 C6             1.1810     2.1097     0.0021 C.2     
   7 C7             1.1375     3.5730    -0.0541 C.2     
   8 C8             1.9322     4.3805     0.5690 C.2     
   9 C9             3.8242     2.8819     1.1620 C.2     
  10 N10            3.5624     2.1062     0.0872 N.am    
  11 C11            3.0278     3.9829     1.4596 C.2     
  12 C12            4.8990     2.5540     1.9925 C.2     
  13 C13            5.1595     3.3110     3.1329 C.2     
  14 C14            4.3433     4.3960     3.4477 C.2     
  15 C15            3.2817     4.7335     2.6108 C.2     
  16 C16            4.4638     2.0087    -0.9100 C.2     
  17 O17            4.2283     1.3119    -1.8743 O.2     
  18 N18            5.6269     2.6856    -0.8356 N.am    
  19 H19           -0.9605     1.9139     0.0170 H       
  20 H20           -0.9257    -0.5568     0.0086 H       
  21 H21            1.2354    -1.7644    -0.0297 H       
  22 H22            3.3579    -0.4939    -0.0205 H       
  23 H23            0.3720     4.0178    -0.6726 H       
  24 H24            1.7761     5.4389     0.4206 H       
  25 H25            5.5294     1.7113     1.7499 H       
  26 H26            5.9929     3.0577     3.7714 H       
  27 H27            4.5324     4.9738     4.3404 H       
  28 H28            2.6533     5.5780     2.8523 H       
  29 H29            5.8152     3.2429    -0.0643 H       
  30 H30            6.2756     2.6154    -1.5533 H       
@<TRIPOS>BOND
   1    1    2 2
   2    1    6 1
   3    1   19 1
   4    2    3 1
   5    2   20 1
   6    3    4 2
   7    3   21 1
   8    4    5 1
   9    4   22 1
  10    5    6 2
  11    5   10 1
  12    6    7 1
  13    7    8 2
  14    7   23 1
  15    8   11 1
  16    8   24 1
  17    9   12 2
  18    9   10 1
  19    9   11 1
  20   10   16 am
  21   11   15 2
  22   12   13 1
  23   12   25 1
  24   13   14 2
  25   13   26 1
  26   14   15 1
  27   14   27 1
  28   15   28 1
  29   16   17 2
  30   16   18 am
  31   18   29 1
  32   18   30 1

#	End of record

