#	Name: ASD01814742
#	Creating user name:	WinNT
#	Creation time:	15. 06. 2019 19:32

#	Modifying user name:	WinNT
#	Modification time:	15. 06. 2019 19:32

#	Program:	/corina/corina34_cracker 3.40 0067  02.08.2006

@<TRIPOS>MOLECULE
ASD01814742
  62   66    0    0    0
SMALL
NO_CHARGES


@<TRIPOS>ATOM
   1 C1            -0.0187     1.5258     0.0104 C.3     
   2 C2             0.0021    -0.0041     0.0020 C.3     
   3 N3            -1.3723    -0.5112     0.0124 N.pl3   
   4 C4            -2.0656    -0.8746     1.1334 C.2     
   5 C5            -3.2974    -1.2947     0.7965 C.2     
   6 C6            -3.3992    -1.1913    -0.6578 C.ar    
   7 C7            -4.4043    -1.4712    -1.5872 C.ar    
   8 C8            -5.7416    -2.0053    -1.1430 C.3     
   9 C9            -6.6355    -0.8574    -0.7498 C.ar    
  10 C10           -6.6377    -0.4003     0.5553 C.ar    
  11 C11           -7.4561     0.6512     0.9188 C.ar    
  12 C12           -8.2769     1.2496    -0.0278 C.ar    
  13 C13           -8.2721     0.7886    -1.3374 C.ar    
  14 C14           -7.4477    -0.2598    -1.6960 C.ar    
  15 N15           -9.1090     2.3167     0.3382 N.pl3   
  16 C16           -9.9565     2.9817    -0.4792 C.2     
  17 C17          -10.5735     3.9359     0.2556 C.2     
  18 C18          -10.0879     3.8522     1.5652 C.2     
  19 N19           -9.2144     2.8791     1.6169 N.2     
  20 C20           -4.1419    -1.2467    -2.9134 C.ar    
  21 C21           -2.8915    -0.7504    -3.2922 C.ar    
  22 N22           -1.9509    -0.4916    -2.3943 N.ar    
  23 C23           -2.1572    -0.6861    -1.1036 C.ar    
  24 C24           -2.6115    -0.5091    -4.7248 C.2     
  25 O25           -3.4647    -0.7424    -5.5585 O.2     
  26 N26           -1.4104    -0.0307    -5.1054 N.am    
  27 C27           -1.1331     0.2081    -6.5240 C.3     
  28 H28           -1.6361    -0.5494    -7.1251 H       
  29 C29           -1.6462     1.5948    -6.9174 C.3     
  30 C30           -1.3566     1.8443    -8.3989 C.3     
  31 C31            0.1520     1.7704    -8.6432 C.3     
  32 C32            0.6650     0.3837    -8.2497 C.3     
  33 C33            0.3754     0.1342    -6.7683 C.3     
  34 H34            0.8784     0.8917    -6.1672 H       
  35 O35            0.8546    -1.1609    -6.4008 O.3     
  36 H36            1.0039     1.9031     0.0027 H       
  37 H37           -0.5459     1.8868    -0.8726 H       
  38 H38           -0.5289     1.8773     0.9072 H       
  39 H39            0.5123    -0.3556    -0.8948 H       
  40 H40            0.5293    -0.3651     0.8851 H       
  41 H41           -1.6802    -0.8311     2.1414 H       
  42 H42           -4.0650    -1.6429     1.4717 H       
  43 H43           -6.2013    -2.5600    -1.9610 H       
  44 H44           -5.6028    -2.6670    -0.2880 H       
  45 H45           -5.9990    -0.8661     1.2911 H       
  46 H46           -7.4579     1.0074     1.9383 H       
  47 H47           -8.9098     1.2519    -2.0758 H       
  48 H48           -7.4403    -0.6160    -2.7156 H       
  49 H49          -10.1126     2.7865    -1.5299 H       
  50 H50          -11.3106     4.6380    -0.1051 H       
  51 H51          -10.3857     4.4801     2.3919 H       
  52 H52           -4.8950    -1.4519    -3.6598 H       
  53 H53           -0.7295     0.1554    -4.4401 H       
  54 H54           -2.7209     1.6475    -6.7434 H       
  55 H55           -1.1432     2.3523    -6.3163 H       
  56 H56           -1.8596     1.0868    -9.0000 H       
  57 H57           -1.7221     2.8322    -8.6792 H       
  58 H58            0.3582     1.9481    -9.6987 H       
  59 H59            0.6549     2.5279    -8.0421 H       
  60 H60            0.1620    -0.3738    -8.8508 H       
  61 H61            1.7397     0.3310    -8.4238 H       
  62 H62            1.8056    -1.2796    -6.5295 H       
@<TRIPOS>BOND
   1    1    2 1
   2    1   36 1
   3    1   37 1
   4    1   38 1
   5    2    3 1
   6    2   39 1
   7    2   40 1
   8    3   23 1
   9    3    4 1
  10    4    5 2
  11    4   41 1
  12    5    6 1
  13    5   42 1
  14    6   23 ar
  15    6    7 ar
  16    7    8 1
  17    7   20 ar
  18    8    9 1
  19    8   43 1
  20    8   44 1
  21    9   14 ar
  22    9   10 ar
  23   10   11 ar
  24   10   45 1
  25   11   12 ar
  26   11   46 1
  27   12   13 ar
  28   12   15 1
  29   13   14 ar
  30   13   47 1
  31   14   48 1
  32   15   19 1
  33   15   16 1
  34   16   17 2
  35   16   49 1
  36   17   18 1
  37   17   50 1
  38   18   19 2
  39   18   51 1
  40   20   21 ar
  41   20   52 1
  42   21   22 ar
  43   21   24 1
  44   22   23 ar
  45   24   25 2
  46   24   26 am
  47   26   27 1
  48   26   53 1
  49   27   28 1
  50   27   33 1
  51   27   29 1
  52   29   30 1
  53   29   54 1
  54   29   55 1
  55   30   31 1
  56   30   56 1
  57   30   57 1
  58   31   32 1
  59   31   58 1
  60   31   59 1
  61   32   33 1
  62   32   60 1
  63   32   61 1
  64   33   34 1
  65   33   35 1
  66   35   62 1

#	End of record

