#	Name: ASD03621006
#	Creating user name:	WinNT
#	Creation time:	15. 06. 2019 20:43

#	Modifying user name:	WinNT
#	Modification time:	15. 06. 2019 20:43

#	Program:	/corina/corina34_cracker 3.40 0067  02.08.2006

@<TRIPOS>MOLECULE
ASD03621006
  80   83    0    0    0
SMALL
NO_CHARGES


@<TRIPOS>ATOM
   1 C1            -1.2618    -2.1536     2.3147 C.ar    
   2 C2            -0.7024    -3.4084     2.4675 C.ar    
   3 C3             0.6549    -3.5881     2.2765 C.ar    
   4 C4             1.4526    -2.5130     1.9321 C.ar    
   5 C5             0.8931    -1.2583     1.7783 C.ar    
   6 C6            -0.4639    -1.0784     1.9708 C.ar    
   7 C7             2.9324    -2.7087     1.7247 C.3     
   8 C8             3.1971    -3.0450     0.2798 C.2     
   9 N9             4.4586    -3.2640    -0.1410 N.am    
  10 O10            2.2749    -3.1185    -0.5044 O.2     
  11 C11            8.6382    -4.8081    -2.3739 C.2     
  12 N12            9.7107    -4.8190    -3.1900 N.am    
  13 O13            7.8402    -5.7208    -2.4090 O.2     
  14 C14            9.9660    -5.9781    -4.0489 C.3     
  15 C15           11.4156    -6.3750    -3.9392 C.2     
  16 N16           11.8825    -7.4233    -4.6460 N.am    
  17 O17           12.1621    -5.7512    -3.2150 O.2     
  18 C18            9.6442    -5.6178    -5.5006 C.3     
  19 C19            8.1675    -5.3494    -5.6362 C.ar    
  20 C20           13.3097    -7.7522    -4.6121 C.3     
  21 C21           13.8863    -7.6681    -6.0268 C.3     
  22 C22           13.4933    -9.1712    -4.0701 C.3     
  23 C23           13.0379    -9.2235    -2.6346 C.ar    
  24 C24           11.7227    -9.5285    -2.3373 C.ar    
  25 C25           11.3050    -9.5764    -1.0205 C.ar    
  26 C26           12.2024    -9.3197    -0.0009 C.ar    
  27 C27           13.5177    -9.0156    -0.2981 C.ar    
  28 C28           13.9365    -8.9719    -1.6147 C.ar    
  29 C29            8.4304    -3.6620    -1.4178 C.3     
  30 C30            7.6709    -4.0705    -5.4716 C.ar    
  31 N31            6.3798    -3.8279    -5.5887 N.ar    
  32 C32            5.5167    -4.7854    -5.8654 C.ar    
  33 C33            5.9401    -6.0891    -6.0439 C.ar    
  34 C34            7.2906    -6.3818    -5.9333 C.ar    
  35 C35            9.1371    -3.9496    -0.0696 C.3     
  36 C36            8.3231    -3.0582     0.9051 C.3     
  37 C37            6.8902    -3.1460     0.3390 C.3     
  38 N38            7.0025    -3.5320    -1.0752 N.am    
  39 N39            4.7046    -3.5766    -1.4843 N.am    
  40 C40            5.9708    -3.7329    -1.9189 C.2     
  41 O41            6.1824    -4.0552    -3.0720 O.2     
  42 C42           13.8060    -6.2457    -6.5182 C.2     
  43 O43           13.4320    -5.3699    -5.7746 O.2     
  44 O44           14.1499    -5.9518    -7.7819 O.3     
  45 H45           -2.3229    -2.0141     2.4596 H       
  46 H46           -1.3257    -4.2484     2.7366 H       
  47 H47            1.0920    -4.5683     2.3966 H       
  48 H48            1.5165    -0.4182     1.5100 H       
  49 H49           -0.9010    -0.0981     1.8510 H       
  50 H50            3.4604    -1.7919     1.9870 H       
  51 H51            3.2834    -3.5238     2.3576 H       
  52 H52            5.1962    -3.2052     0.4862 H       
  53 H53           10.3137    -4.0594    -3.2086 H       
  54 H54            9.3365    -6.8100    -3.7329 H       
  55 H55           11.2736    -7.9599    -5.1772 H       
  56 H56           10.2032    -4.7266    -5.7862 H       
  57 H57            9.9241    -6.4463    -6.1512 H       
  58 H58           13.8301    -7.0460    -3.9651 H       
  59 H59           14.9276    -7.9900    -6.0145 H       
  60 H60           13.3139    -8.3150    -6.6915 H       
  61 H61           12.9010    -9.8667    -4.6648 H       
  62 H62           14.5458    -9.4488    -4.1277 H       
  63 H63           11.0216    -9.7290    -3.1339 H       
  64 H64           10.2773    -9.8140    -0.7883 H       
  65 H65           11.8758    -9.3564     1.0279 H       
  66 H66           14.2188    -8.8147     0.4985 H       
  67 H67           14.9642    -8.7343    -1.8469 H       
  68 H68            8.8041    -2.7345    -1.8517 H       
  69 H69            8.3477    -3.2602    -5.2441 H       
  70 H70            4.4667    -4.5485    -5.9533 H       
  71 H71            5.2283    -6.8692    -6.2700 H       
  72 H72            7.6504    -7.3912    -6.0676 H       
  73 H73            9.0514    -5.0023     0.1996 H       
  74 H74           10.1817    -3.6401    -0.1022 H       
  75 H75            8.3627    -3.4586     1.9182 H       
  76 H76            8.6849    -2.0303     0.8812 H       
  77 H77            6.3215    -3.8989     0.8847 H       
  78 H78            6.3992    -2.1763     0.4208 H       
  79 H79            3.9637    -3.6806    -2.1017 H       
  80 H80           14.0819    -5.0256    -8.0513 H       
@<TRIPOS>BOND
   1    1    2 ar
   2    1    6 ar
   3    1   45 1
   4    2    3 ar
   5    2   46 1
   6    3    4 ar
   7    3   47 1
   8    4    5 ar
   9    4    7 1
  10    5    6 ar
  11    5   48 1
  12    6   49 1
  13    7    8 1
  14    7   50 1
  15    7   51 1
  16    8    9 am
  17    8   10 2
  18    9   39 1
  19    9   52 1
  20   11   12 am
  21   11   13 2
  22   11   29 1
  23   12   14 1
  24   12   53 1
  25   14   15 1
  26   14   18 1
  27   14   54 1
  28   15   16 am
  29   15   17 2
  30   16   20 1
  31   16   55 1
  32   18   19 1
  33   18   56 1
  34   18   57 1
  35   19   30 ar
  36   19   34 ar
  37   20   21 1
  38   20   22 1
  39   20   58 1
  40   21   42 1
  41   21   59 1
  42   21   60 1
  43   22   23 1
  44   22   61 1
  45   22   62 1
  46   23   24 ar
  47   23   28 ar
  48   24   25 ar
  49   24   63 1
  50   25   26 ar
  51   25   64 1
  52   26   27 ar
  53   26   65 1
  54   27   28 ar
  55   27   66 1
  56   28   67 1
  57   29   35 1
  58   29   38 1
  59   29   68 1
  60   30   31 ar
  61   30   69 1
  62   31   32 ar
  63   32   33 ar
  64   32   70 1
  65   33   34 ar
  66   33   71 1
  67   34   72 1
  68   35   36 1
  69   35   73 1
  70   35   74 1
  71   36   37 1
  72   36   75 1
  73   36   76 1
  74   37   38 1
  75   37   77 1
  76   37   78 1
  77   38   40 am
  78   39   40 am
  79   39   79 1
  80   40   41 2
  81   42   43 2
  82   42   44 1
  83   44   80 1

#	End of record

