#	Name: ASD01911254
#	Creating user name:	WinNT
#	Creation time:	15. 06. 2019 19:57

#	Modifying user name:	WinNT
#	Modification time:	15. 06. 2019 19:57

#	Program:	/corina/corina34_cracker 3.40 0067  02.08.2006

@<TRIPOS>MOLECULE
ASD01911254
  44   47    0    0    0
SMALL
NO_CHARGES


@<TRIPOS>ATOM
   1 C1            -0.2882     0.6869     0.1953 C.3     
   2 C2             0.4502    -0.6356     0.4243 C.3     
   3 N3             1.2306    -0.9560    -0.7787 N.am    
   4 C4             2.1646     0.0495    -1.3033 C.3     
   5 C5             1.4070     1.3644    -1.5129 C.3     
   6 C6             0.7197     1.7664    -0.2060 C.3     
   7 C7             1.0926    -2.1496    -1.3890 C.2     
   8 O8             1.6789    -2.3712    -2.4273 O.2     
   9 C9             0.2097    -3.2091    -0.7814 C.3     
  10 C10            2.7296    -0.4231    -2.6180 C.2     
  11 N11            3.9528    -0.8384    -2.8348 N.2     
  12 C12            4.0007    -1.1571    -4.1480 C.2     
  13 N13            2.8155    -0.9191    -4.6465 N.2     
  14 O14            2.0751    -0.5027    -3.7807 O.3     
  15 C15            5.1782    -1.6791    -4.8855 C.ar    
  16 C16            6.3849    -1.8845    -4.2204 C.ar    
  17 C17            7.4769    -2.3701    -4.9113 C.ar    
  18 C18            7.3745    -2.6526    -6.2613 C.ar    
  19 C19            6.1786    -2.4504    -6.9267 C.ar    
  20 C20            5.0790    -1.9708    -6.2445 C.ar    
  21 C21            6.0748    -2.7601    -8.3979 C.3     
  22 C22            0.0945    -4.5428    -1.5222 C.3     
  23 C23            0.8904    -4.4582    -0.2183 C.3     
  24 H24           -1.0223     0.5607    -0.6005 H       
  25 H25           -0.7941     0.9849     1.1137 H       
  26 H26            1.1197    -0.5371     1.2787 H       
  27 H27           -0.2724    -1.4296     0.6132 H       
  28 H28            2.9740     0.2039    -0.5897 H       
  29 H29            2.1077     2.1446    -1.8104 H       
  30 H30            0.6570     1.2318    -2.2926 H       
  31 H31            0.2001     2.7144    -0.3456 H       
  32 H32            1.4677     1.8747     0.5794 H       
  33 H33           -0.6769    -2.8423    -0.2643 H       
  34 H34            6.4660    -1.6639    -3.1663 H       
  35 H35            8.4129    -2.5294    -4.3967 H       
  36 H36            8.2314    -3.0320    -6.7980 H       
  37 H37            4.1458    -1.8137    -6.7648 H       
  38 H38            5.7634    -3.7962    -8.5300 H       
  39 H39            5.3404    -2.0986    -8.8574 H       
  40 H40            7.0455    -2.6093    -8.8703 H       
  41 H41           -0.8679    -5.0537    -1.4921 H       
  42 H42            0.6572    -4.6540    -2.4490 H       
  43 H43            1.9768    -4.5138    -0.2873 H       
  44 H44            0.4517    -4.9135     0.6696 H       
@<TRIPOS>BOND
   1    1    2 1
   2    1    6 1
   3    1   24 1
   4    1   25 1
   5    2    3 1
   6    2   26 1
   7    2   27 1
   8    3    4 1
   9    3    7 am
  10    4    5 1
  11    4   10 1
  12    4   28 1
  13    5    6 1
  14    5   29 1
  15    5   30 1
  16    6   31 1
  17    6   32 1
  18    7    8 2
  19    7    9 1
  20    9   22 1
  21    9   23 1
  22    9   33 1
  23   10   11 2
  24   10   14 1
  25   11   12 1
  26   12   13 2
  27   12   15 1
  28   13   14 1
  29   15   16 ar
  30   15   20 ar
  31   16   17 ar
  32   16   34 1
  33   17   18 ar
  34   17   35 1
  35   18   19 ar
  36   18   36 1
  37   19   20 ar
  38   19   21 1
  39   20   37 1
  40   21   38 1
  41   21   39 1
  42   21   40 1
  43   22   23 1
  44   22   41 1
  45   22   42 1
  46   23   43 1
  47   23   44 1

#	End of record

