#	Name: ASD03740115
#	Creating user name:	WinNT
#	Creation time:	15. 06. 2019 20:46

#	Modifying user name:	WinNT
#	Modification time:	15. 06. 2019 20:46

#	Program:	/corina/corina34_cracker 3.40 0067  02.08.2006

@<TRIPOS>MOLECULE
ASD03740115
  35   37    0    0    0
SMALL
NO_CHARGES


@<TRIPOS>ATOM
   1 C1            -0.0167     1.3815     0.0096 C.ar    
   2 C2             0.0021    -0.0041     0.0020 C.ar    
   3 C3             1.2003    -0.6897    -0.0132 C.ar    
   4 C4             2.3987     0.0098    -0.0209 C.ar    
   5 C5             2.3803     1.4148    -0.0132 C.ar    
   6 C6             1.1644     2.0940     0.0022 C.ar    
   7 N7             3.7265    -0.3879    -0.0358 N.pl3   
   8 N8             4.5509     0.7417    -0.0376 N.am    
   9 C9             3.7874     1.8530    -0.0243 C.2     
  10 C10            4.1938    -1.7764    -0.0477 C.3     
  11 C11            4.3404    -2.2448    -1.4725 C.ar    
  12 C12            5.5448    -2.0760    -2.1325 C.ar    
  13 C13            5.6860    -2.5029    -3.4366 C.ar    
  14 C14            4.6101    -3.1065    -4.0906 C.ar    
  15 C15            3.3976    -3.2737    -3.4186 C.ar    
  16 C16            3.2718    -2.8469    -2.1129 C.ar    
  17 O17            4.1854     3.0020    -0.0219 O.2     
  18 C18            4.7538    -3.5657    -5.4873 C.2     
  19 O19            5.8097    -3.4185    -6.0694 O.2     
  20 O20            3.7138    -4.1476    -6.1153 O.3     
  21 C21            3.9269    -4.5741    -7.4868 C.3     
  22 H22           -0.9607     1.9061     0.0170 H       
  23 H23           -0.9285    -0.5522     0.0084 H       
  24 H24            1.2050    -1.7697    -0.0186 H       
  25 H25            1.1464     3.1738     0.0078 H       
  26 H26            5.5207     0.7279    -0.0470 H       
  27 H27            5.1581    -1.8395     0.4566 H       
  28 H28            3.4711    -2.4074     0.4697 H       
  29 H29            6.3760    -1.6087    -1.6255 H       
  30 H30            6.6265    -2.3703    -3.9507 H       
  31 H31            2.5613    -3.7394    -3.9188 H       
  32 H32            2.3345    -2.9756    -1.5919 H       
  33 H33            3.0129    -5.0253    -7.8732 H       
  34 H34            4.1930    -3.7119    -8.0983 H       
  35 H35            4.7346    -5.3053    -7.5187 H       
@<TRIPOS>BOND
   1    1    2 ar
   2    1    6 ar
   3    1   22 1
   4    2    3 ar
   5    2   23 1
   6    3    4 ar
   7    3   24 1
   8    4    5 ar
   9    4    7 1
  10    5    6 ar
  11    5    9 1
  12    6   25 1
  13    7    8 1
  14    7   10 1
  15    8    9 am
  16    8   26 1
  17    9   17 2
  18   10   11 1
  19   10   27 1
  20   10   28 1
  21   11   12 ar
  22   11   16 ar
  23   12   13 ar
  24   12   29 1
  25   13   14 ar
  26   13   30 1
  27   14   15 ar
  28   14   18 1
  29   15   16 ar
  30   15   31 1
  31   16   32 1
  32   18   19 2
  33   18   20 1
  34   20   21 1
  35   21   33 1
  36   21   34 1
  37   21   35 1

#	End of record

