#	Name: ASD02030473
#	Creating user name:	WinNT
#	Creation time:	15. 06. 2019 20:15

#	Modifying user name:	WinNT
#	Modification time:	15. 06. 2019 20:15

#	Program:	/corina/corina34_cracker 3.40 0067  02.08.2006

@<TRIPOS>MOLECULE
ASD02030473
  58   62    0    0    0
SMALL
NO_CHARGES


@<TRIPOS>ATOM
   1 N1            -0.0330     1.2426     0.3467 N.am    
   2 C2            -0.2590    -0.2094     0.3692 C.3     
   3 C3            -1.3003    -0.5265     1.4496 C.3     
   4 N4            -2.4529     0.3669     1.2676 N.am    
   5 C5            -2.2269     1.8189     1.2450 C.3     
   6 C6            -1.1863     2.1363     0.1703 C.3     
   7 C7             1.2090     1.7459     0.4908 C.2     
   8 C8             2.3400     0.8456     0.8001 C.2     
   9 N9             3.5693     1.2174     1.0856 N.2     
  10 N10            2.2923    -0.4985     0.8449 N.2     
  11 C11            3.4926    -0.9203     1.1516 C.2     
  12 N12            4.2806     0.1645     1.2992 N.pl3   
  13 O13            1.3991     2.9401     0.3664 O.2     
  14 C14           -3.6949    -0.1363     1.1235 C.2     
  15 C15           -3.8938    -1.5903     1.0420 C.2     
  16 O16           -4.6513     0.6129     1.0609 O.2     
  17 C17           -0.7353     3.5920     0.3061 C.3     
  18 C18           -1.7941     1.9105    -1.2156 C.3     
  19 C19            5.6426     0.1489     1.6286 C.ar    
  20 C20            6.3422     1.3416     1.7505 C.ar    
  21 C21            7.6857     1.3228     2.0761 C.ar    
  22 C22            8.3324     0.1165     2.2796 C.ar    
  23 C23            7.6372    -1.0727     2.1586 C.ar    
  24 C24            6.2936    -1.0596     1.8392 C.ar    
  25 Cl25           8.5621     2.8135     2.2290 Cl      
  26 C26           -5.0734    -2.2034     0.7644 C.2     
  27 C27           -4.7989    -3.6396     0.7884 C.ar    
  28 C28           -3.4295    -3.7612     1.0892 C.ar    
  29 O29           -2.9306    -2.5173     1.2260 O.3     
  30 C30           -5.5757    -4.7831     0.5862 C.ar    
  31 C31           -5.0000    -6.0184     0.6818 C.ar    
  32 C32           -3.6496    -6.1441     0.9788 C.ar    
  33 C33           -2.8662    -5.0289     1.1817 C.ar    
  34 C34           -6.3971    -1.5383     0.4876 C.3     
  35 H35           -0.6284    -0.5372    -0.6024 H       
  36 H36            0.6752    -0.7214     0.6000 H       
  37 H37           -1.6225    -1.5634     1.3540 H       
  38 H38           -0.8649    -0.3656     2.4359 H       
  39 H39           -3.1611     2.3310     1.0143 H       
  40 H40           -1.8575     2.1468     2.2167 H       
  41 H41            3.7964    -1.9501     1.2685 H       
  42 H42           -0.1960     3.7192     1.2447 H       
  43 H43           -0.0807     3.8488    -0.5268 H       
  44 H44           -1.6080     4.2450     0.2970 H       
  45 H45           -2.6579     2.5628    -1.3441 H       
  46 H46           -1.0507     2.1373    -1.9797 H       
  47 H47           -2.1068     0.8706    -1.3102 H       
  48 H48            5.8376     2.2831     1.5910 H       
  49 H49            9.3821     0.1037     2.5332 H       
  50 H50            8.1446    -2.0127     2.3177 H       
  51 H51            5.7515    -1.9890     1.7453 H       
  52 H52           -6.6267    -4.6909     0.3556 H       
  53 H53           -5.5995    -6.9030     0.5256 H       
  54 H54           -3.2082    -7.1271     1.0515 H       
  55 H55           -1.8169    -5.1393     1.4125 H       
  56 H56           -6.4938    -1.3526    -0.5821 H       
  57 H57           -7.2067    -2.1890     0.8181 H       
  58 H58           -6.4482    -0.5923     1.0267 H       
@<TRIPOS>BOND
   1    1    2 1
   2    1    7 am
   3    1    6 1
   4    2    3 1
   5    2   35 1
   6    2   36 1
   7    3    4 1
   8    3   37 1
   9    3   38 1
  10    4    5 1
  11    4   14 am
  12    5    6 1
  13    5   39 1
  14    5   40 1
  15    6   17 1
  16    6   18 1
  17    7    8 1
  18    7   13 2
  19    8    9 2
  20    8   10 1
  21    9   12 1
  22   10   11 2
  23   11   12 1
  24   11   41 1
  25   12   19 1
  26   14   15 1
  27   14   16 2
  28   15   26 2
  29   15   29 1
  30   17   42 1
  31   17   43 1
  32   17   44 1
  33   18   45 1
  34   18   46 1
  35   18   47 1
  36   19   20 ar
  37   19   24 ar
  38   20   21 ar
  39   20   48 1
  40   21   22 ar
  41   21   25 1
  42   22   23 ar
  43   22   49 1
  44   23   24 ar
  45   23   50 1
  46   24   51 1
  47   26   27 1
  48   26   34 1
  49   27   28 ar
  50   27   30 ar
  51   28   29 1
  52   28   33 ar
  53   30   31 ar
  54   30   52 1
  55   31   32 ar
  56   31   53 1
  57   32   33 ar
  58   32   54 1
  59   33   55 1
  60   34   56 1
  61   34   57 1
  62   34   58 1

#	End of record

