#	Name: ASD04840107
#	Creating user name:	WinNT
#	Creation time:	15. 06. 2019 20:52

#	Modifying user name:	WinNT
#	Modification time:	15. 06. 2019 20:52

#	Program:	/corina/corina34_cracker 3.40 0067  02.08.2006

@<TRIPOS>MOLECULE
ASD04840107
  51   55    0    0    0
SMALL
NO_CHARGES


@<TRIPOS>ATOM
   1 C1            -0.0167     1.3793     0.0096 C.ar    
   2 C2            -1.2190     2.0512     0.0190 C.ar    
   3 C3            -1.5594     3.5288     0.0406 C.3     
   4 C4            -3.0507     3.5072     0.4518 C.3     
   5 O5            -3.4834     2.2087     0.0115 O.3     
   6 C6            -2.4217     1.3567     0.0147 C.ar    
   7 C7            -2.3940    -0.0359     0.0124 C.ar    
   8 C8            -1.1889    -0.7068     0.0060 C.ar    
   9 C9             0.0021    -0.0041     0.0020 C.ar    
  10 C10            1.3157    -0.7424    -0.0165 C.3     
  11 P11            1.7909    -1.1799     1.6883 P.3     
  12 O12            3.1248    -2.0810     1.6590 O.3     
  13 O13            2.0697     0.1643     2.5294 O.3     
  14 O14            0.6943    -1.9423     2.3259 O.2     
  15 N15            1.1782    -1.9637    -0.8138 N.pl3   
  16 C16            2.1546    -2.3035    -1.7321 C.ar    
  17 N17            3.2184    -1.5325    -1.8995 N.ar    
  18 C18            4.1592    -1.8449    -2.7728 C.ar    
  19 N19            4.0935    -2.9252    -3.5158 N.ar    
  20 C20            3.0575    -3.7683    -3.4200 C.ar    
  21 S21            2.7027    -5.2656    -4.2689 S.3     
  22 C22            2.0358    -3.4880    -2.5069 C.ar    
  23 C23            0.9983    -4.4971    -2.5227 C.2     
  24 C24            1.1978    -5.4845    -3.3961 C.2     
  25 C25            0.2769    -6.6243    -3.5923 C.ar    
  26 C26           -0.8957    -6.7154    -2.8409 C.ar    
  27 C27           -1.7507    -7.7817    -3.0289 C.ar    
  28 C28           -1.4477    -8.7596    -3.9595 C.ar    
  29 C29           -2.3863    -9.9215    -4.1594 C.3     
  30 C30           -0.2869    -8.6753    -4.7076 C.ar    
  31 C31            0.5736    -7.6110    -4.5338 C.ar    
  32 H32            0.9111     1.9321     0.0037 H       
  33 H33           -0.9586     4.0562     0.7816 H       
  34 H34           -1.4335     3.9721    -0.9472 H       
  35 H35           -3.1546     3.6029     1.5326 H       
  36 H36           -3.6043     4.2933    -0.0616 H       
  37 H37           -3.3196    -0.5924     0.0161 H       
  38 H38           -1.1753    -1.7867     0.0042 H       
  39 H39            2.0839    -0.1062    -0.4559 H       
  40 H40            3.0297    -2.9086     1.1681 H       
  41 H41            1.3074     0.7564     2.5887 H       
  42 H42            0.4023    -2.5341    -0.6975 H       
  43 H43            5.0108    -1.1892    -2.8793 H       
  44 H44            0.1266    -4.4477    -1.8870 H       
  45 H45           -1.1331    -5.9530    -2.1137 H       
  46 H46           -2.6585    -7.8533    -2.4481 H       
  47 H47           -3.1159    -9.6708    -4.9294 H       
  48 H48           -1.8180   -10.7986    -4.4692 H       
  49 H49           -2.9039   -10.1356    -3.2244 H       
  50 H50           -0.0561    -9.4420    -5.4324 H       
  51 H51            1.4770    -7.5438    -5.1218 H       
@<TRIPOS>BOND
   1    1    9 ar
   2    1   32 1
   3    1    2 ar
   4    2    3 1
   5    2    6 ar
   6    3   33 1
   7    3   34 1
   8    3    4 1
   9    4    5 1
  10    4   35 1
  11    4   36 1
  12    5    6 1
  13    6    7 ar
  14    7    8 ar
  15    7   37 1
  16    8    9 ar
  17    8   38 1
  18    9   10 1
  19   10   15 1
  20   10   11 1
  21   10   39 1
  22   11   12 1
  23   11   13 1
  24   11   14 2
  25   12   40 1
  26   13   41 1
  27   15   16 1
  28   15   42 1
  29   16   17 ar
  30   16   22 ar
  31   17   18 ar
  32   18   19 ar
  33   18   43 1
  34   19   20 ar
  35   20   21 1
  36   20   22 ar
  37   21   24 1
  38   22   23 1
  39   23   24 2
  40   23   44 1
  41   24   25 1
  42   25   31 ar
  43   25   26 ar
  44   26   27 ar
  45   26   45 1
  46   27   28 ar
  47   27   46 1
  48   28   29 1
  49   28   30 ar
  50   29   47 1
  51   29   48 1
  52   29   49 1
  53   30   50 1
  54   30   31 ar
  55   31   51 1

#	End of record

