#	Name: ASD04220002
#	Creating user name:	WinNT
#	Creation time:	15. 06. 2019 20:48

#	Modifying user name:	WinNT
#	Modification time:	15. 06. 2019 20:48

#	Program:	/corina/corina34_cracker 3.40 0067  02.08.2006

@<TRIPOS>MOLECULE
ASD04220002
  62   64    0    0    0
SMALL
NO_CHARGES


@<TRIPOS>ATOM
   1 C1            -2.1472     1.8641    -0.4333 C.ar    
   2 C2            -1.4311     1.3947     0.6638 C.ar    
   3 C3            -2.1107     0.9639     1.7886 C.ar    
   4 C4            -3.4981     0.9967     1.8304 C.ar    
   5 C5            -4.2086     1.4506     0.7412 C.ar    
   6 C6            -3.5286     1.8943    -0.3868 C.ar    
   7 C7            -4.1729     0.5380     3.0990 C.3     
   8 N8            -5.6132     0.3876     2.8665 N.am    
   9 C9            -6.2932     1.4576     2.1181 C.3     
  10 C10           -5.7141     1.4835     0.7046 C.3     
  11 C11           -6.2874    -0.6877     3.3197 C.2     
  12 O12           -7.4970    -0.7388     3.2071 O.2     
  13 C13           -5.5574    -1.8036     3.9529 C.ar    
  14 C14           -5.3087    -1.7865     5.3275 C.ar    
  15 C15           -4.6248    -2.8326     5.9180 C.ar    
  16 C16           -4.1840    -3.9028     5.1441 C.ar    
  17 C17           -4.4306    -3.9222     3.7739 C.ar    
  18 C18           -5.1191    -2.8813     3.1795 C.ar    
  19 O19           -1.4912     2.2961    -1.5434 O.3     
  20 O20           -1.2415     1.2437    -2.5374 O.3     
  21 O21           -0.5329     1.7104    -3.7366 O.3     
  22 S22           -0.2743     0.6201    -4.7665 S.3     
  23 O23            0.4547     1.3635    -5.8766 O.3     
  24 O24           -0.0720     1.3596     0.6299 O.3     
  25 O25            0.5698     2.5876     1.1178 O.3     
  26 O26            2.0378     2.5496     1.0812 O.3     
  27 S27            2.7028     3.8219     1.5866 S.3     
  28 O28            4.1862     3.5142     1.4406 O.3     
  29 O29           -4.3820    -2.8163     7.2561 O.3     
  30 O30           -5.4367    -3.4450     8.0625 O.3     
  31 O31           -5.1744    -3.4274     9.5078 O.3     
  32 S32           -6.2672    -4.0788    10.3432 S.3     
  33 O33           -5.7491    -3.9233    11.7659 O.3     
  34 O34           -3.5116    -4.9298     5.7269 O.3     
  35 O35           -4.3771    -6.0177     6.2017 O.3     
  36 O36           -3.6501    -7.1279     6.8317 O.3     
  37 S37           -4.5468    -8.2550     7.3236 S.3     
  38 O38           -3.5562    -9.2464     7.9171 O.3     
  39 C39           -7.7725     1.1767     2.0579 C.2     
  40 O40           -8.2342     0.5674     1.1223 O.2     
  41 O41           -8.5774     1.6035     3.0437 O.3     
  42 C42          -10.7429     1.8595     4.1278 C.3     
  43 C43           -9.9913     1.2972     2.9196 C.3     
  44 O44           -3.9984    -4.9688     3.0206 O.3     
  45 O45           -4.9696    -6.0651     2.9077 O.3     
  46 O46           -4.5027    -7.1955     2.0940 O.3     
  47 S47           -5.5090    -8.3314     1.9770 S.3     
  48 O48           -4.7828    -9.3433     1.1022 O.3     
  49 H49           -1.5577     0.5986     2.6414 H       
  50 H50           -4.0846     2.2587    -1.2379 H       
  51 H51           -3.7533    -0.4198     3.4070 H       
  52 H52           -4.0074     1.2751     3.8847 H       
  53 H53           -6.1188     2.4168     2.6056 H       
  54 H54           -6.0406     2.3928     0.2000 H       
  55 H55           -6.0782     0.6173     0.1520 H       
  56 H56           -5.6501    -0.9564     5.9282 H       
  57 H57           -5.3102    -2.8969     2.1167 H       
  58 H58          -11.8043     1.6295     4.0346 H       
  59 H59          -10.3523     1.4092     5.0404 H       
  60 H60          -10.6075     2.9402     4.1692 H       
  61 H61          -10.3818     1.7475     2.0070 H       
  62 H62          -10.1266     0.2165     2.8782 H       
@<TRIPOS>BOND
   1    1    2 ar
   2    1   19 1
   3    1    6 ar
   4    2    3 ar
   5    2   24 1
   6    3    4 ar
   7    3   49 1
   8    4    5 ar
   9    4    7 1
  10    5    6 ar
  11    5   10 1
  12    6   50 1
  13    7    8 1
  14    7   51 1
  15    7   52 1
  16    8    9 1
  17    8   11 am
  18    9   10 1
  19    9   39 1
  20    9   53 1
  21   10   54 1
  22   10   55 1
  23   11   12 2
  24   11   13 1
  25   13   14 ar
  26   13   18 ar
  27   14   15 ar
  28   14   56 1
  29   15   16 ar
  30   15   29 1
  31   16   17 ar
  32   16   34 1
  33   17   18 ar
  34   17   44 1
  35   18   57 1
  36   19   20 1
  37   20   21 1
  38   21   22 1
  39   22   23 1
  40   24   25 1
  41   25   26 1
  42   26   27 1
  43   27   28 1
  44   29   30 1
  45   30   31 1
  46   31   32 1
  47   32   33 1
  48   34   35 1
  49   35   36 1
  50   36   37 1
  51   37   38 1
  52   39   40 2
  53   39   41 1
  54   41   43 1
  55   42   43 1
  56   42   58 1
  57   42   59 1
  58   42   60 1
  59   43   61 1
  60   43   62 1
  61   44   45 1
  62   45   46 1
  63   46   47 1
  64   47   48 1

#	End of record

