#	Name: ASD04590288
#	Creating user name:	WinNT
#	Creation time:	15. 06. 2019 20:50

#	Modifying user name:	WinNT
#	Modification time:	15. 06. 2019 20:50

#	Program:	/corina/corina34_cracker 3.40 0067  02.08.2006

@<TRIPOS>MOLECULE
ASD04590288
  40   43    0    0    0
SMALL
NO_CHARGES


@<TRIPOS>ATOM
   1 C1            -0.0167     1.3832     0.0096 C.ar    
   2 C2             0.0021    -0.0041     0.0020 C.ar    
   3 C3            -1.1738    -0.7192     0.0094 C.ar    
   4 C4            -2.3977    -0.0431     0.0252 C.ar    
   5 C5            -2.4107     1.3631     0.0333 C.ar    
   6 C6            -1.2148     2.0662     0.0305 C.ar    
   7 N7            -3.6889    -0.4558     0.0354 N.2     
   8 C8            -4.4844     0.5863     0.0491 C.2     
   9 N9            -3.7413     1.7362     0.0484 N.pl3   
  10 C10           -5.9607     0.5285     0.0632 C.2     
  11 C11           -6.7466    -0.6471     0.0646 C.2     
  12 C12           -8.0494    -0.2732     0.0793 C.2     
  13 N13           -8.0930     1.0850     0.0868 N.pl3   
  14 N14           -6.7769     1.5640     0.0823 N.2     
  15 N15           -6.2638    -1.9657     0.0530 N.am    
  16 C16           -7.1281    -2.9999     0.0560 C.2     
  17 C17           -6.6208    -4.3851     0.0437 C.ar    
  18 O18           -8.3260    -2.7911     0.0687 O.2     
  19 C19           -5.8861    -6.3477     1.2264 C.ar    
  20 C20           -5.6664    -6.9888     0.0208 C.ar    
  21 C21           -5.9149    -6.3371    -1.1736 C.ar    
  22 C22           -6.3907    -5.0394    -1.1714 C.ar    
  23 F23           -6.6332    -4.4047    -2.3391 F       
  24 C24           -6.3617    -5.0501     1.2471 C.ar    
  25 F25           -6.5752    -4.4255     2.4259 F       
  26 C26            1.2811     2.1491     0.0014 C.3     
  27 O27            1.6785     2.3984    -1.3484 O.3     
  28 H28            0.9470    -0.5269    -0.0102 H       
  29 H29           -1.1513    -1.7990     0.0027 H       
  30 H30           -1.2220     3.1462     0.0371 H       
  31 H31           -4.0847     2.6434     0.0569 H       
  32 H32           -8.9014    -0.9369     0.0837 H       
  33 H33           -8.8963     1.6286     0.0972 H       
  34 H34           -5.3082    -2.1322     0.0428 H       
  35 H35           -5.6895    -6.8640     2.1544 H       
  36 H36           -5.2944    -8.0027     0.0118 H       
  37 H37           -5.7403    -6.8450    -2.1106 H       
  38 H38            1.1467     3.0974     0.5216 H       
  39 H39            2.0512     1.5645     0.5047 H       
  40 H40            2.5079     2.8887    -1.4301 H       
@<TRIPOS>BOND
   1    1    2 ar
   2    1   26 1
   3    1    6 ar
   4    2    3 ar
   5    2   28 1
   6    3    4 ar
   7    3   29 1
   8    4    5 ar
   9    4    7 1
  10    5    6 ar
  11    5    9 1
  12    6   30 1
  13    7    8 2
  14    8    9 1
  15    8   10 1
  16    9   31 1
  17   10   11 1
  18   10   14 2
  19   11   12 2
  20   11   15 1
  21   12   13 1
  22   12   32 1
  23   13   14 1
  24   13   33 1
  25   15   16 am
  26   15   34 1
  27   16   17 1
  28   16   18 2
  29   17   22 ar
  30   17   24 ar
  31   19   20 ar
  32   19   24 ar
  33   19   35 1
  34   20   21 ar
  35   20   36 1
  36   21   22 ar
  37   21   37 1
  38   22   23 1
  39   24   25 1
  40   26   27 1
  41   26   38 1
  42   26   39 1
  43   27   40 1

#	End of record

