#	Name: ASD01900005
#	Creating user name:	WinNT
#	Creation time:	15. 06. 2019 19:51

#	Modifying user name:	WinNT
#	Modification time:	15. 06. 2019 19:51

#	Program:	/corina/corina34_cracker 3.40 0067  02.08.2006

@<TRIPOS>MOLECULE
ASD01900005
  41   44    0    0    0
SMALL
NO_CHARGES


@<TRIPOS>ATOM
   1 N1            -0.0117     1.3176     0.1413 N.ar    
   2 C2             0.0068    -0.0038     0.1520 C.ar    
   3 N3             1.1223    -0.6980     0.0987 N.ar    
   4 C4             2.3022    -0.0842     0.0304 C.ar    
   5 C5             2.3359     1.3238     0.0162 C.ar    
   6 C6             1.1134     2.0208     0.0752 C.ar    
   7 N7             1.0851     3.4015     0.0641 N.3     
   8 N8             3.6001    -0.5047    -0.0350 N.pl3   
   9 N9             4.4244     0.6264    -0.0889 N.2     
  10 C10            3.6933     1.7046    -0.0595 C.2     
  11 C11            4.0322    -1.8373    -0.0459 C.ar    
  12 C12            3.5212    -2.7418     0.8748 C.ar    
  13 C13            3.9489    -4.0554     0.8614 C.ar    
  14 C14            4.8853    -4.4700    -0.0674 C.ar    
  15 C15            5.3970    -3.5721    -0.9864 C.ar    
  16 C16            4.9693    -2.2581    -0.9822 C.ar    
  17 Cl17           5.6114    -1.1313    -2.1362 Cl      
  18 C18           -0.2944     3.9001     0.1333 C.3     
  19 C19           -0.2812     5.4247     0.2656 C.3     
  20 C20            0.4404     6.0307    -0.9413 C.3     
  21 C21            1.8585     5.4583    -1.0184 C.3     
  22 C22            1.7832     3.9328    -1.1135 C.3     
  23 C23           -1.7189     5.9456     0.3156 C.3     
  24 H24           -0.9320    -0.5348     0.2071 H       
  25 H25            4.0634     2.7188    -0.0881 H       
  26 H26            2.7901    -2.4188     1.6012 H       
  27 H27            3.5514    -4.7593     1.5776 H       
  28 H28            5.2183    -5.4974    -0.0750 H       
  29 H29            6.1287    -3.8990    -1.7105 H       
  30 H30           -0.8282     3.6190    -0.7745 H       
  31 H31           -0.7950     3.4649     0.9982 H       
  32 H32            0.2405     5.7061     1.1804 H       
  33 H33           -0.1028     5.7820    -1.8530 H       
  34 H34            0.4903     7.1138    -0.8299 H       
  35 H35            2.3630     5.8535    -1.9002 H       
  36 H36            2.4138     5.7402    -0.1238 H       
  37 H37            2.7917     3.5212    -1.1541 H       
  38 H38            1.2398     3.6515    -2.0155 H       
  39 H39           -2.2331     5.5113     1.1729 H       
  40 H40           -1.7088     7.0315     0.4098 H       
  41 H41           -2.2390     5.6652    -0.6003 H       
@<TRIPOS>BOND
   1    1    2 ar
   2    1    6 ar
   3    2    3 ar
   4    2   24 1
   5    3    4 ar
   6    4    5 ar
   7    4    8 1
   8    5    6 ar
   9    5   10 1
  10    6    7 1
  11    7   18 1
  12    7   22 1
  13    8    9 1
  14    8   11 1
  15    9   10 2
  16   10   25 1
  17   11   12 ar
  18   11   16 ar
  19   12   13 ar
  20   12   26 1
  21   13   14 ar
  22   13   27 1
  23   14   15 ar
  24   14   28 1
  25   15   16 ar
  26   15   29 1
  27   16   17 1
  28   18   19 1
  29   18   30 1
  30   18   31 1
  31   19   20 1
  32   19   23 1
  33   19   32 1
  34   20   21 1
  35   20   33 1
  36   20   34 1
  37   21   22 1
  38   21   35 1
  39   21   36 1
  40   22   37 1
  41   22   38 1
  42   23   39 1
  43   23   40 1
  44   23   41 1

#	End of record

