#	Name: ASD03080192
#	Creating user name:	WinNT
#	Creation time:	15. 06. 2019 20:26

#	Modifying user name:	WinNT
#	Modification time:	15. 06. 2019 20:26

#	Program:	/corina/corina34_cracker 3.40 0067  02.08.2006

@<TRIPOS>MOLECULE
ASD03080192
  35   37    0    0    0
SMALL
NO_CHARGES


@<TRIPOS>ATOM
   1 C1            -0.0168     1.3914     0.0097 C.ar    
   2 C2             0.0021    -0.0041     0.0020 C.ar    
   3 C3             1.2348    -0.6640    -0.0133 C.ar    
   4 C4             2.3917     0.1043    -0.0203 C.ar    
   5 C5             2.2854     1.4883    -0.0119 C.ar    
   6 N6             1.1063     2.0788     0.0027 N.ar    
   7 O7             3.6132    -0.4917    -0.0348 O.3     
   8 C8             4.7545     0.3682    -0.0411 C.3     
   9 C9             6.0298    -0.4771    -0.0574 C.3     
  10 C10            7.3644     0.2601    -0.1844 C.3     
  11 C11            6.9631    -0.3709     1.1503 C.3     
  12 C12           -1.2609    -0.7722     0.0105 C.2     
  13 C13           -2.4236    -0.1358     0.0255 C.2     
  14 N14           -5.7633    -0.6817     0.3514 N.3     
  15 C15           -4.5999    -0.6538     1.2574 C.3     
  16 C16           -3.7112    -0.9189     0.0341 C.3     
  17 C17           -4.8604    -0.2475    -0.7308 C.3     
  18 H18           -0.9625     1.9129     0.0170 H       
  19 H19            1.2859    -1.7428    -0.0193 H       
  20 H20            3.1818     2.0906    -0.0172 H       
  21 H21            4.7273     1.0017    -0.9277 H       
  22 H22            4.7439     0.9927     0.8522 H       
  23 H23            5.9434    -1.4490    -0.5432 H       
  24 H24            8.1562    -0.2269    -0.7536 H       
  25 H25            7.3340     1.3473    -0.2565 H       
  26 H26            6.6686     0.3011     1.9564 H       
  27 H27            7.4909    -1.2732     1.4594 H       
  28 H28           -1.2363    -1.8519     0.0044 H       
  29 H29           -2.4482     0.9439     0.0315 H       
  30 H30           -6.0809    -1.6274     0.1998 H       
  31 H31           -4.4293     0.3207     1.7151 H       
  32 H32           -4.5947    -1.4675     1.9825 H       
  33 H33           -3.5740    -1.9752    -0.1974 H       
  34 H34           -5.0758    -0.7170    -1.6907 H       
  35 H35           -4.7592     0.8353    -0.8037 H       
@<TRIPOS>BOND
   1    1    2 ar
   2    1    6 ar
   3    1   18 1
   4    2    3 ar
   5    2   12 1
   6    3    4 ar
   7    3   19 1
   8    4    5 ar
   9    4    7 1
  10    5    6 ar
  11    5   20 1
  12    7    8 1
  13    8    9 1
  14    8   21 1
  15    8   22 1
  16    9   10 1
  17    9   11 1
  18    9   23 1
  19   10   11 1
  20   10   24 1
  21   10   25 1
  22   11   26 1
  23   11   27 1
  24   12   13 2
  25   12   28 1
  26   13   16 1
  27   13   29 1
  28   14   15 1
  29   14   17 1
  30   14   30 1
  31   15   16 1
  32   15   31 1
  33   15   32 1
  34   16   17 1
  35   16   33 1
  36   17   34 1
  37   17   35 1

#	End of record

