#	Name: ASD03092630
#	Creating user name:	WinNT
#	Creation time:	15. 06. 2019 20:32

#	Modifying user name:	WinNT
#	Modification time:	15. 06. 2019 20:32

#	Program:	/corina/corina34_cracker 3.40 0067  02.08.2006

@<TRIPOS>MOLECULE
ASD03092630
  43   45    0    0    0
SMALL
NO_CHARGES


@<TRIPOS>ATOM
   1 C1             0.2744     1.5251     0.0576 C.3     
   2 C2             0.0926     0.0292     0.0727 C.ar    
   3 C3             0.9811    -0.7667     0.7723 C.ar    
   4 C4             0.8175    -2.1378     0.7882 C.ar    
   5 C5            -0.2413    -2.7174     0.1006 C.ar    
   6 N6            -0.4101    -4.1046     0.1149 N.pl3   
   7 C7            -0.0528    -4.8362     1.2406 C.ar    
   8 N8             0.3407    -4.2192     2.3497 N.ar    
   9 C9             0.6815    -4.9043     3.4239 C.ar    
  10 C10            1.1207    -4.1568     4.6565 C.3     
  11 N11            0.6502    -6.2192     3.4543 N.ar    
  12 C12            0.2678    -6.9212     2.3857 C.ar    
  13 C13           -0.1071    -6.2358     1.2262 C.ar    
  14 N14           -0.5204    -6.9277     0.0837 N.pl3   
  15 C15            0.2357    -8.4021     2.4292 C.ar    
  16 C16            0.8476    -9.1453     1.4213 C.ar    
  17 C17            0.8145   -10.5243     1.4669 C.ar    
  18 C18            0.1759   -11.1706     2.5100 C.ar    
  19 C19           -0.4337   -10.4407     3.5141 C.ar    
  20 C20           -0.4029    -9.0590     3.4833 C.ar    
  21 F21           -0.9932    -8.3461     4.4674 F       
  22 C22            0.1438   -12.6767     2.5521 C.3     
  23 F23            1.2601   -13.1475     3.2517 F       
  24 F24           -1.0233   -13.1004     3.1966 F       
  25 F25            0.1650   -13.1802     1.2470 F       
  26 C26           -1.1322    -1.9149    -0.6008 C.ar    
  27 C27           -0.9655    -0.5441    -0.6086 C.ar    
  28 H28           -0.2665     1.9653     0.8954 H       
  29 H29            1.3345     1.7632     0.1443 H       
  30 H30           -0.1135     1.9289    -0.8776 H       
  31 H31            1.8041    -0.3154     1.3067 H       
  32 H32            1.5122    -2.7589     1.3343 H       
  33 H33           -0.7767    -4.5566    -0.6611 H       
  34 H34            0.2532    -3.9461     5.2820 H       
  35 H35            1.8327    -4.7641     5.2154 H       
  36 H36            1.5938    -3.2195     4.3637 H       
  37 H37           -0.6711    -6.4481    -0.7458 H       
  38 H38           -0.6564    -7.8874     0.1206 H       
  39 H39            1.3465    -8.6429     0.6058 H       
  40 H40            1.2883   -11.1004     0.6858 H       
  41 H41           -0.9308   -10.9509     4.3258 H       
  42 H42           -1.9563    -2.3624    -1.1368 H       
  43 H43           -1.6600     0.0807    -1.1506 H       
@<TRIPOS>BOND
   1    1    2 1
   2    1   28 1
   3    1   29 1
   4    1   30 1
   5    2   27 ar
   6    2    3 ar
   7    3    4 ar
   8    3   31 1
   9    4    5 ar
  10    4   32 1
  11    5    6 1
  12    5   26 ar
  13    6    7 1
  14    6   33 1
  15    7   13 ar
  16    7    8 ar
  17    8    9 ar
  18    9   10 1
  19    9   11 ar
  20   10   34 1
  21   10   35 1
  22   10   36 1
  23   11   12 ar
  24   12   13 ar
  25   12   15 1
  26   13   14 1
  27   14   37 1
  28   14   38 1
  29   15   20 ar
  30   15   16 ar
  31   16   17 ar
  32   16   39 1
  33   17   18 ar
  34   17   40 1
  35   18   19 ar
  36   18   22 1
  37   19   20 ar
  38   19   41 1
  39   20   21 1
  40   22   23 1
  41   22   24 1
  42   22   25 1
  43   26   27 ar
  44   26   42 1
  45   27   43 1

#	End of record

