#	Name: ASD01811511
#	Creating user name:	WinNT
#	Creation time:	15. 06. 2019 19:26

#	Modifying user name:	WinNT
#	Modification time:	15. 06. 2019 19:26

#	Program:	/corina/corina34_cracker 3.40 0067  02.08.2006

@<TRIPOS>MOLECULE
ASD01811511
  71   75    0    0    0
SMALL
NO_CHARGES


@<TRIPOS>ATOM
   1 C1            -7.8355     2.4625    -4.0562 C.1     
   2 C2            -6.8086     3.2083    -3.3929 C.ar    
   3 C3            -5.6407     2.5706    -2.9698 C.ar    
   4 C4            -4.6555     3.2951    -2.3315 C.ar    
   5 C5            -4.8229     4.6506    -2.1097 C.ar    
   6 C6            -5.9779     5.2887    -2.5259 C.ar    
   7 C7            -6.9682     4.5777    -3.1715 C.ar    
   8 N8            -8.6501     1.8709    -4.5823 N.1     
   9 N9            -2.6112     7.7941    -0.3357 N.am    
  10 C10           -2.1187     7.3200    -1.6362 C.3     
  11 C11           -3.2405     6.5464    -2.3362 C.3     
  12 C12           -3.7425     5.4353    -1.4112 C.3     
  13 C13           -4.3079     6.0524    -0.1300 C.3     
  14 C14           -3.1982     6.8204     0.5950 C.3     
  15 C15           -2.5213     9.0964    -0.0005 C.2     
  16 C16           -3.0979     9.5731     1.2749 C.ar    
  17 C17           -4.0314    10.6121     1.2761 C.ar    
  18 C18           -4.5706    11.0582     2.4660 C.ar    
  19 C19           -4.1915    10.4813     3.6623 C.ar    
  20 C20           -3.2594     9.4421     3.6753 C.ar    
  21 C21           -2.7156     8.9831     2.4777 C.ar    
  22 O22           -1.9661     9.8790    -0.7466 O.2     
  23 C23           -4.7850    10.9751     4.9565 C.3     
  24 C24           -4.4506    11.2478    -0.0244 C.3     
  25 N25           -0.7478     7.7770     9.3069 N.3     
  26 C26           -0.0301     7.4173     8.1025 C.3     
  27 C27           -0.9279     6.6010     7.1572 C.3     
  28 C28           -1.8339     7.5906     6.4467 C.2     
  29 C29           -2.7582     8.3507     7.0597 C.2     
  30 C30           -3.0220     8.3300     8.5563 C.3     
  31 C31           -1.7399     8.8285     9.2428 C.3     
  32 C32           -2.8542     8.8258     4.9576 C.2     
  33 N33           -1.8793     7.8798     5.1183 N.pl3   
  34 N34           -3.3710     9.0947     6.1397 N.2     
  35 C35            0.1781     7.9944    10.4264 C.3     
  36 C36            1.0606     9.2086    10.1299 C.3     
  37 F37            2.0169     9.3482    11.1415 F       
  38 H38           -5.5091     1.5125    -3.1417 H       
  39 H39           -3.7517     2.8031    -2.0037 H       
  40 H40           -6.1022     6.3469    -2.3493 H       
  41 H41           -7.8671     5.0780    -3.5001 H       
  42 H42           -1.8255     8.1727    -2.2487 H       
  43 H43           -1.2614     6.6640    -1.4852 H       
  44 H44           -4.0610     7.2255    -2.5678 H       
  45 H45           -2.8593     6.1077    -3.2583 H       
  46 H46           -2.9158     4.7708    -1.1599 H       
  47 H47           -5.1184     6.7361    -0.3823 H       
  48 H48           -4.6865     5.2620     0.5182 H       
  49 H49           -2.4290     6.1235     0.9279 H       
  50 H50           -3.6173     7.3433     1.4547 H       
  51 H51           -5.2918    11.8620     2.4616 H       
  52 H52           -1.9974     8.1765     2.4820 H       
  53 H53           -5.6289    10.3433     5.2336 H       
  54 H54           -4.0292    10.9366     5.7409 H       
  55 H55           -5.1263    12.0027     4.8309 H       
  56 H56           -5.2533    10.6624    -0.4729 H       
  57 H57           -4.8022    12.2622     0.1637 H       
  58 H58           -3.5995    11.2785    -0.7047 H       
  59 H59            0.2952     8.3248     7.5940 H       
  60 H60            0.8439     6.8233     8.3695 H       
  61 H61           -0.3155     6.0682     6.4298 H       
  62 H62           -1.5266     5.8934     7.7308 H       
  63 H63           -3.8544     8.9913     8.7968 H       
  64 H64           -3.2466     7.3140     8.8808 H       
  65 H65           -1.9794     9.1576    10.2539 H       
  66 H66           -1.3354     9.6693     8.6793 H       
  67 H67           -1.3277     7.4916     4.4212 H       
  68 H68           -0.3907     8.1728    11.3390 H       
  69 H69            0.8053     7.1124    10.5558 H       
  70 H70            1.5623     9.0681     9.1725 H       
  71 H71            0.4425    10.1055    10.0880 H       
@<TRIPOS>BOND
   1    1    2 1
   2    1    8 3
   3    2    3 ar
   4    2    7 ar
   5    3    4 ar
   6    3   38 1
   7    4    5 ar
   8    4   39 1
   9    5    6 ar
  10    5   12 1
  11    6    7 ar
  12    6   40 1
  13    7   41 1
  14    9   10 1
  15    9   14 1
  16    9   15 am
  17   10   11 1
  18   10   42 1
  19   10   43 1
  20   11   12 1
  21   11   44 1
  22   11   45 1
  23   12   13 1
  24   12   46 1
  25   13   14 1
  26   13   47 1
  27   13   48 1
  28   14   49 1
  29   14   50 1
  30   15   16 1
  31   15   22 2
  32   16   17 ar
  33   16   21 ar
  34   17   18 ar
  35   17   24 1
  36   18   19 ar
  37   18   51 1
  38   19   20 ar
  39   19   23 1
  40   20   21 ar
  41   20   32 1
  42   21   52 1
  43   23   53 1
  44   23   54 1
  45   23   55 1
  46   24   56 1
  47   24   57 1
  48   24   58 1
  49   25   26 1
  50   25   31 1
  51   25   35 1
  52   26   27 1
  53   26   59 1
  54   26   60 1
  55   27   28 1
  56   27   61 1
  57   27   62 1
  58   28   29 2
  59   28   33 1
  60   29   30 1
  61   29   34 1
  62   30   31 1
  63   30   63 1
  64   30   64 1
  65   31   65 1
  66   31   66 1
  67   32   33 1
  68   32   34 2
  69   33   67 1
  70   35   36 1
  71   35   68 1
  72   35   69 1
  73   36   37 1
  74   36   70 1
  75   36   71 1

#	End of record

