#	Name: ASD01917640
#	Creating user name:	WinNT
#	Creation time:	15. 06. 2019 20:09

#	Modifying user name:	WinNT
#	Modification time:	15. 06. 2019 20:09

#	Program:	/corina/corina34_cracker 3.40 0067  02.08.2006

@<TRIPOS>MOLECULE
ASD01917640
  63   67    0    0    0
SMALL
NO_CHARGES


@<TRIPOS>ATOM
   1 C1            -0.0166     1.3754     0.0096 C.ar    
   2 C2             0.0021    -0.0041     0.0020 C.ar    
   3 C3            -1.1966    -0.7153     0.0101 C.ar    
   4 C4            -2.4091    -0.0288     0.0258 C.ar    
   5 C5            -1.1816    -2.1989     0.0015 C.2     
   6 N6            -0.0836    -2.9816    -0.0136 N.2     
   7 C7            -2.2715    -3.0098     0.0134 C.2     
   8 N8            -1.8046    -4.2968    -0.0010 N.pl3   
   9 C9            -0.4473    -4.2336    -0.0172 C.2     
  10 C10           -2.5828    -5.4640     0.0046 C.ar    
  11 C11           -3.5970    -5.6185     0.9397 C.ar    
  12 C12           -4.3622    -6.7683     0.9437 C.ar    
  13 C13           -3.1105    -7.6117    -0.9216 C.ar    
  14 C14           -2.3434    -6.4633    -0.9286 C.ar    
  15 C15            0.4851    -5.4173    -0.0373 C.3     
  16 C16            0.7785    -5.8015    -1.4647 C.2     
  17 N17            1.5954    -6.8405    -1.7286 N.am    
  18 O18            0.2794    -5.1758    -2.3759 O.2     
  19 C19            1.8949    -7.2323    -3.1142 C.3     
  20 C20            2.2158    -7.6088    -0.6386 C.3     
  21 C21            3.7232    -7.6947    -0.9004 C.3     
  22 N22            3.9531    -8.2319    -2.2481 N.3     
  23 C23            3.4156    -7.3337    -3.2735 C.3     
  24 C24            5.3005    -8.4767    -2.4621 C.ar    
  25 N25            6.1930    -8.2244    -1.5071 N.ar    
  26 C26            5.7404    -8.9956    -3.6774 C.ar    
  27 C27            7.1004    -9.2231    -3.8423 C.ar    
  28 N28            7.9293    -8.9394    -2.8411 N.ar    
  29 C29            7.4753    -8.4545    -1.7034 C.ar    
  30 C30           -4.1178    -7.7668     0.0159 C.ar    
  31 F31           -4.8667    -8.8913     0.0219 F       
  32 F32           -1.2383     3.4048     0.0379 F       
  33 C33           -2.4183     1.3512     0.0333 C.ar    
  34 C34           -1.2246     2.0538     0.0306 C.ar    
  35 C35            1.2787     2.1455     0.0014 C.3     
  36 O36            7.5767    -9.7274    -5.0068 O.3     
  37 C37            8.9881    -9.9321    -5.0961 C.3     
  38 H38            0.9441    -0.5321    -0.0105 H       
  39 H39           -3.3402    -0.5759     0.0318 H       
  40 H40           -3.3058    -2.6994     0.0307 H       
  41 H41           -3.7874    -4.8402     1.6640 H       
  42 H42           -5.1513    -6.8889     1.6712 H       
  43 H43           -2.9245    -8.3894    -1.6475 H       
  44 H44           -1.5579    -6.3427    -1.6600 H       
  45 H45            1.4154    -5.1556     0.4670 H       
  46 H46            0.0172    -6.2572     0.4762 H       
  47 H47            1.4390    -8.1990    -3.3281 H       
  48 H48            1.5043    -6.4804    -3.7999 H       
  49 H49            2.0372    -7.1057     0.3117 H       
  50 H50            1.7913    -8.6123    -0.6103 H       
  51 H51            4.1626    -6.7000    -0.8255 H       
  52 H52            4.1835    -8.3525    -0.1631 H       
  53 H53            3.6480    -7.7298    -4.2621 H       
  54 H54            3.8630    -6.3460    -3.1626 H       
  55 H55            5.0417    -9.2159    -4.4710 H       
  56 H56            8.1750    -8.2349    -0.9105 H       
  57 H57           -3.3577     1.8840     0.0452 H       
  58 H58            1.5812     2.3367    -1.0282 H       
  59 H59            1.1412     3.0934     0.5216 H       
  60 H60            2.0507     1.5634     0.5047 H       
  61 H61            9.2350   -10.3383    -6.0770 H       
  62 H62            9.5026    -8.9813    -4.9566 H       
  63 H63            9.3033   -10.6327    -4.3229 H       
@<TRIPOS>BOND
   1    1    2 ar
   2    1   35 1
   3    1   34 ar
   4    2    3 ar
   5    2   38 1
   6    3    4 ar
   7    3    5 1
   8    4   33 ar
   9    4   39 1
  10    5    6 1
  11    5    7 2
  12    6    9 2
  13    7    8 1
  14    7   40 1
  15    8    9 1
  16    8   10 1
  17    9   15 1
  18   10   11 ar
  19   10   14 ar
  20   11   12 ar
  21   11   41 1
  22   12   30 ar
  23   12   42 1
  24   13   14 ar
  25   13   30 ar
  26   13   43 1
  27   14   44 1
  28   15   16 1
  29   15   45 1
  30   15   46 1
  31   16   17 am
  32   16   18 2
  33   17   19 1
  34   17   20 1
  35   19   23 1
  36   19   47 1
  37   19   48 1
  38   20   21 1
  39   20   49 1
  40   20   50 1
  41   21   22 1
  42   21   51 1
  43   21   52 1
  44   22   23 1
  45   22   24 1
  46   23   53 1
  47   23   54 1
  48   24   25 ar
  49   24   26 ar
  50   25   29 ar
  51   26   27 ar
  52   26   55 1
  53   27   28 ar
  54   27   36 1
  55   28   29 ar
  56   29   56 1
  57   30   31 1
  58   32   34 1
  59   33   34 ar
  60   33   57 1
  61   35   58 1
  62   35   59 1
  63   35   60 1
  64   36   37 1
  65   37   61 1
  66   37   62 1
  67   37   63 1

#	End of record

