#	Name: ASD00843148
#	Creating user name:	WinNT
#	Creation time:	15. 06. 2019 18:46

#	Modifying user name:	WinNT
#	Modification time:	15. 06. 2019 18:46

#	Program:	/corina/corina34_cracker 3.40 0067  02.08.2006

@<TRIPOS>MOLECULE
ASD00843148
  96  101    0    0    0
SMALL
NO_CHARGES


@<TRIPOS>ATOM
   1 F1            -0.1158    -3.1636     4.7135 F       
   2 N2            -0.0057     1.3211     0.0335 N.ar    
   3 C3             0.0085    -0.0012     0.0173 C.ar    
   4 C4             1.2114    -0.6959    -0.0024 C.ar    
   5 C5             2.3990     0.0142    -0.0048 C.ar    
   6 C6             2.3412     1.4012     0.0125 C.ar    
   7 C7             1.1101     2.0256     0.0316 C.ar    
   8 C8             1.2227    -2.2028    -0.0203 C.3     
   9 C9             0.4753    -2.7244    -1.2290 C.2     
  10 N10            2.5991    -2.7045    -0.0120 N.am    
  11 C11            3.4466    -2.3635    -1.0029 C.2     
  12 N12            4.7401    -2.7371    -0.9417 N.am    
  13 O13            3.0442    -1.7188    -1.9520 O.2     
  14 C14            5.6552    -2.4758    -2.0632 C.3     
  15 C15            6.9058    -1.7777    -1.5184 C.3     
  16 N16            7.4742    -2.5798    -0.4269 N.3     
  17 C17            6.5397    -2.6818     0.7019 C.3     
  18 C18            5.2755    -3.4114     0.2507 C.3     
  19 C19            8.7676    -2.0358     0.0079 C.3     
  20 C20            9.2692    -2.8188     1.2244 C.3     
  21 C21           10.6444    -2.2877     1.6352 C.3     
  22 N22           11.5822    -2.4354     0.5148 N.3     
  23 C23           11.1459    -1.6540    -0.6494 C.3     
  24 C24            9.7856    -2.1662    -1.1284 C.3     
  25 C25           12.9455    -2.0642     0.9170 C.3     
  26 O26            0.7559    -2.5229    -2.3917 O.2     
  27 N27           -0.5570    -3.4530    -0.7720 N.am    
  28 C28            0.4488    -2.7521     1.1561 C.ar    
  29 C29           -0.6012    -3.4894     0.6233 C.ar    
  30 C30            0.6140    -2.6410     2.5185 C.ar    
  31 C31           -0.2744    -3.2697     3.3761 C.ar    
  32 C32           -1.3265    -4.0085     2.8564 C.ar    
  33 C33           -1.4919    -4.1197     1.4892 C.ar    
  34 F34           -2.1939    -4.6223     3.6908 F       
  35 C35           -1.0276    -5.8369    -2.0642 C.ar    
  36 C36            0.1499    -5.9992    -2.7799 C.ar    
  37 C37           -1.7086    -6.9429    -1.5920 C.ar    
  38 C38           -1.2189    -8.2124    -1.8309 C.ar    
  39 C39           -0.0414    -8.3800    -2.5463 C.ar    
  40 C40            0.6432    -7.2724    -3.0213 C.ar    
  41 O41            0.4396    -9.6291    -2.7814 O.3     
  42 O42            0.8189    -4.9113    -3.2443 O.3     
  43 C43            2.0241    -5.1531    -3.9731 C.3     
  44 C44           -0.3179   -10.7242    -2.2627 C.3     
  45 C45           13.9121    -2.3484    -0.2344 C.3     
  46 C46           12.9875    -0.5743     1.2623 C.3     
  47 S47           -1.6513    -4.2191    -1.7507 S.o2    
  48 O48           -2.8320    -4.3870    -0.9781 O.2     
  49 O49           -1.6274    -3.5319    -2.9943 O.2     
  50 O50           -1.1628    -0.6859     0.0204 O.3     
  51 C51           -2.3653     0.0859     0.0415 C.3     
  52 C52           -3.5737    -0.8525     0.0418 C.3     
  53 F53           -3.5487    -1.6455    -1.1104 F       
  54 F54           -3.5264    -1.6732     1.1738 F       
  55 H55            3.3493    -0.4988    -0.0196 H       
  56 H56            3.2495     1.9854     0.0115 H       
  57 H57            1.0596     3.1043     0.0448 H       
  58 H58            2.9004    -3.2822     0.7066 H       
  59 H59            5.9371    -3.4181    -2.5329 H       
  60 H60            5.1650    -1.8317    -2.7933 H       
  61 H61            7.6418    -1.6754    -2.3159 H       
  62 H62            6.6368    -0.7906    -1.1424 H       
  63 H63            7.0101    -3.2351     1.5147 H       
  64 H64            6.2757    -1.6821     1.0470 H       
  65 H65            4.5346    -3.3887     1.0498 H       
  66 H66            5.5181    -4.4445     0.0018 H       
  67 H67            8.6500    -0.9853     0.2741 H       
  68 H68            8.5695    -2.6948     2.0508 H       
  69 H69            9.3485    -3.8756     0.9695 H       
  70 H70           10.5618    -1.2344     1.9032 H       
  71 H71           11.0108    -2.8527     2.4923 H       
  72 H72           11.0608    -0.6037    -0.3707 H       
  73 H73           11.8764    -1.7587    -1.4516 H       
  74 H74            9.8730    -3.2127    -1.4203 H       
  75 H75            9.4548    -1.5758    -1.9829 H       
  76 H76           13.2384    -2.6478     1.7898 H       
  77 H77            1.4352    -2.0647     2.9183 H       
  78 H78           -2.3136    -4.6963     1.0910 H       
  79 H79           -2.6250    -6.8145    -1.0351 H       
  80 H80           -1.7525    -9.0752    -1.4603 H       
  81 H81            1.5594    -7.4008    -3.5786 H       
  82 H82            1.8018    -5.7576    -4.8525 H       
  83 H83            2.4567    -4.2027    -4.2855 H       
  84 H84            2.7330    -5.6835    -3.3373 H       
  85 H85            0.1753   -11.6615    -2.5204 H       
  86 H86           -0.3878   -10.6365    -1.1785 H       
  87 H87           -1.3190   -10.7100    -2.6937 H       
  88 H88           13.6192    -1.7648    -1.1072 H       
  89 H89           14.9236    -2.0730     0.0640 H       
  90 H90           13.8822    -3.4098    -0.4804 H       
  91 H91           12.2989    -0.3718     2.0826 H       
  92 H92           13.9990    -0.2988     1.5607 H       
  93 H93           12.6946     0.0093     0.3895 H       
  94 H94           -2.3848     0.7038     0.9392 H       
  95 H95           -2.4021     0.7253    -0.8405 H       
  96 H96           -4.4909    -0.2638     0.0579 H       
@<TRIPOS>BOND
   1    1   31 1
   2    2    3 ar
   3    2    7 ar
   4    3    4 ar
   5    3   50 1
   6    4    5 ar
   7    4    8 1
   8    5    6 ar
   9    5   55 1
  10    6    7 ar
  11    6   56 1
  12    7   57 1
  13    8    9 1
  14    8   10 1
  15    8   28 1
  16    9   26 2
  17    9   27 am
  18   10   11 am
  19   10   58 1
  20   11   12 am
  21   11   13 2
  22   12   14 1
  23   12   18 1
  24   14   15 1
  25   14   59 1
  26   14   60 1
  27   15   16 1
  28   15   61 1
  29   15   62 1
  30   16   17 1
  31   16   19 1
  32   17   18 1
  33   17   63 1
  34   17   64 1
  35   18   65 1
  36   18   66 1
  37   19   20 1
  38   19   24 1
  39   19   67 1
  40   20   21 1
  41   20   68 1
  42   20   69 1
  43   21   22 1
  44   21   70 1
  45   21   71 1
  46   22   23 1
  47   22   25 1
  48   23   24 1
  49   23   72 1
  50   23   73 1
  51   24   74 1
  52   24   75 1
  53   25   45 1
  54   25   46 1
  55   25   76 1
  56   27   47 am
  57   27   29 1
  58   28   29 ar
  59   28   30 ar
  60   29   33 ar
  61   30   31 ar
  62   30   77 1
  63   31   32 ar
  64   32   33 ar
  65   32   34 1
  66   33   78 1
  67   35   36 ar
  68   35   37 ar
  69   35   47 1
  70   36   42 1
  71   36   40 ar
  72   37   38 ar
  73   37   79 1
  74   38   39 ar
  75   38   80 1
  76   39   40 ar
  77   39   41 1
  78   40   81 1
  79   41   44 1
  80   42   43 1
  81   43   82 1
  82   43   83 1
  83   43   84 1
  84   44   85 1
  85   44   86 1
  86   44   87 1
  87   45   88 1
  88   45   89 1
  89   45   90 1
  90   46   91 1
  91   46   92 1
  92   46   93 1
  93   47   48 2
  94   47   49 2
  95   50   51 1
  96   51   52 1
  97   51   94 1
  98   51   95 1
  99   52   53 1
 100   52   54 1
 101   52   96 1

#	End of record

