#	Name: ASD01850113
#	Creating user name:	WinNT
#	Creation time:	15. 06. 2019 19:38

#	Modifying user name:	WinNT
#	Modification time:	15. 06. 2019 19:38

#	Program:	/corina/corina34_cracker 3.40 0067  02.08.2006

@<TRIPOS>MOLECULE
ASD01850113
  49   53    0    0    0
SMALL
NO_CHARGES


@<TRIPOS>ATOM
   1 C1             0.1480     1.0695    -0.1546 C.ar    
   2 C2             0.3401    -0.2956    -0.0387 C.ar    
   3 C3             1.6111    -0.8074     0.1246 C.ar    
   4 C4             2.7065     0.0539     0.1730 C.ar    
   5 C5             2.5003     1.4355     0.0731 C.ar    
   6 C6             1.2293     1.9328    -0.0986 C.ar    
   7 C7             4.1586    -0.1876     0.3122 C.2     
   8 N8             4.8249     0.9541     0.1447 N.am    
   9 C9             3.8526     2.0696     0.2176 C.3     
  10 C10            6.0895     1.6476    -0.1636 C.3     
  11 C11            5.6437     2.7487    -1.1571 C.3     
  12 N12            4.1999     2.9496    -0.9036 N.am    
  13 C13            3.3694     3.7755    -1.5703 C.2     
  14 C14            3.9066     4.6933    -2.5958 C.ar    
  15 C15            3.0728     5.6403    -3.1938 C.ar    
  16 C16            3.5792     6.4959    -4.1519 C.ar    
  17 C17            4.9148     6.4157    -4.5206 C.ar    
  18 C18            5.7472     5.4760    -3.9289 C.ar    
  19 C19            5.2510     4.6201    -2.9658 C.ar    
  20 O20            2.1782     3.7653    -1.3278 O.2     
  21 C21            3.9648     2.7920     1.5354 C.ar    
  22 O22            4.6684    -1.2663     0.5447 O.2     
  23 F23            5.4059     7.2547    -5.4588 F       
  24 F24            2.7733     7.4123    -4.7315 F       
  25 C25            3.6653     4.1392     1.6111 C.ar    
  26 C26            3.7671     4.8051     2.8182 C.ar    
  27 C27            4.1701     4.1210     3.9545 C.ar    
  28 C28            4.4708     2.7667     3.8769 C.ar    
  29 C29            4.3618     2.1044     2.6678 C.ar    
  30 F30            4.8643     2.0967     4.9821 F       
  31 F31            7.0464     5.4022    -4.2921 F       
  32 O32            4.2712     4.7742     5.1426 O.3     
  33 C33            3.9467     6.1658     5.1476 C.3     
  34 H34           -0.8481     1.4630    -0.2937 H       
  35 H35           -0.5080    -0.9632    -0.0759 H       
  36 H36            1.7571    -1.8737     0.2152 H       
  37 H37            1.0746     2.9977    -0.1906 H       
  38 H38            6.5168     2.0896     0.7365 H       
  39 H39            6.7984     0.9666    -0.6345 H       
  40 H40            6.1917     3.6717    -0.9678 H       
  41 H41            5.8038     2.4180    -2.1833 H       
  42 H42            2.0333     5.7032    -2.9077 H       
  43 H43            5.8995     3.8892    -2.5059 H       
  44 H44            3.3517     4.6725     0.7259 H       
  45 H45            3.5331     5.8578     2.8758 H       
  46 H46            4.5952     1.0517     2.6060 H       
  47 H47            4.6102     6.6961     4.4644 H       
  48 H48            2.9134     6.2991     4.8271 H       
  49 H49            4.0690     6.5638     6.1549 H       
@<TRIPOS>BOND
   1    1    2 ar
   2    1    6 ar
   3    1   34 1
   4    2    3 ar
   5    2   35 1
   6    3    4 ar
   7    3   36 1
   8    4    5 ar
   9    4    7 1
  10    5    6 ar
  11    5    9 1
  12    6   37 1
  13    7    8 am
  14    7   22 2
  15    8    9 1
  16    8   10 1
  17    9   21 1
  18    9   12 1
  19   10   11 1
  20   10   38 1
  21   10   39 1
  22   11   12 1
  23   11   40 1
  24   11   41 1
  25   12   13 am
  26   13   14 1
  27   13   20 2
  28   14   15 ar
  29   14   19 ar
  30   15   16 ar
  31   15   42 1
  32   16   17 ar
  33   16   24 1
  34   17   18 ar
  35   17   23 1
  36   18   19 ar
  37   18   31 1
  38   19   43 1
  39   21   25 ar
  40   21   29 ar
  41   25   26 ar
  42   25   44 1
  43   26   27 ar
  44   26   45 1
  45   27   28 ar
  46   27   32 1
  47   28   29 ar
  48   28   30 1
  49   29   46 1
  50   32   33 1
  51   33   47 1
  52   33   48 1
  53   33   49 1

#	End of record

