#	Name: ASD03730753
#	Creating user name:	WinNT
#	Creation time:	15. 06. 2019 20:44

#	Modifying user name:	WinNT
#	Modification time:	15. 06. 2019 20:44

#	Program:	/corina/corina34_cracker 3.40 0067  02.08.2006

@<TRIPOS>MOLECULE
ASD03730753
  45   48    0    0    0
SMALL
NO_CHARGES


@<TRIPOS>ATOM
   1 O1            -0.0175     1.4359     0.0099 O.3     
   2 C2             0.0021    -0.0041     0.0020 C.3     
   3 C3             1.3441    -0.3169    -0.6738 C.3     
   4 C4             2.1584     0.9216    -0.4114 C.ar    
   5 C5             1.2603     1.9065     0.0003 C.ar    
   6 C6             1.7447     3.1720     0.3297 C.ar    
   7 C7             3.0884     3.4509     0.2408 C.ar    
   8 C8             3.9832     2.4642    -0.1813 C.ar    
   9 C9             3.5017     1.1925    -0.5066 C.ar    
  10 N10            2.1536    -2.4053    -1.1295 N.am    
  11 C11            1.9830    -1.5498    -0.1019 C.2     
  12 C12            1.1832    -0.5952    -2.1387 C.ar    
  13 C13            0.6718     0.1266    -3.1941 C.ar    
  14 C14            0.6621    -0.4176    -4.4660 C.ar    
  15 C15            1.1671    -1.6880    -4.6751 C.ar    
  16 C16            1.6801    -2.4152    -3.6214 C.ar    
  17 C17            1.6945    -1.8751    -2.3377 C.ar    
  18 C18            5.3823     2.7531    -0.2801 C.1     
  19 N19            6.4922     2.9823    -0.3586 N.1     
  20 C20            2.7508    -3.7363    -0.9950 C.3     
  21 C21            1.6533    -4.7602    -0.6988 C.3     
  22 C22            2.2770    -6.1502    -0.5583 C.3     
  23 C23            1.1795    -7.1742    -0.2621 C.3     
  24 C24            1.8032    -8.5642    -0.1217 C.3     
  25 O25            2.2864    -1.7386     1.0571 O.2     
  26 H26           -0.0199    -0.3968     1.0186 H       
  27 H27           -0.8276    -0.3989    -0.5844 H       
  28 H28            1.0589     3.9395     0.6569 H       
  29 H29            3.4528     4.4347     0.4975 H       
  30 H30            4.1858     0.4233    -0.8334 H       
  31 H31            0.2775     1.1184    -3.0286 H       
  32 H32            0.2608     0.1483    -5.2938 H       
  33 H33            1.1593    -2.1128    -5.6680 H       
  34 H34            2.0720    -3.4070    -3.7923 H       
  35 H35            3.2560    -4.0033    -1.9232 H       
  36 H36            3.4720    -3.7300    -0.1777 H       
  37 H37            1.1481    -4.4932     0.2294 H       
  38 H38            0.9321    -4.7665    -1.5161 H       
  39 H39            2.7822    -6.4173    -1.4866 H       
  40 H40            2.9982    -6.1439     0.2590 H       
  41 H41            0.6743    -6.9071     0.6661 H       
  42 H42            0.4583    -7.1805    -1.0794 H       
  43 H43            1.0213    -9.2937     0.0894 H       
  44 H44            2.3084    -8.8313    -1.0499 H       
  45 H45            2.5244    -8.5579     0.6956 H       
@<TRIPOS>BOND
   1    1    2 1
   2    1    5 1
   3    2    3 1
   4    2   26 1
   5    2   27 1
   6    3    4 1
   7    3   11 1
   8    3   12 1
   9    4    5 ar
  10    4    9 ar
  11    5    6 ar
  12    6    7 ar
  13    6   28 1
  14    7    8 ar
  15    7   29 1
  16    8    9 ar
  17    8   18 1
  18    9   30 1
  19   10   11 am
  20   10   17 1
  21   10   20 1
  22   11   25 2
  23   12   13 ar
  24   12   17 ar
  25   13   14 ar
  26   13   31 1
  27   14   15 ar
  28   14   32 1
  29   15   16 ar
  30   15   33 1
  31   16   17 ar
  32   16   34 1
  33   18   19 3
  34   20   21 1
  35   20   35 1
  36   20   36 1
  37   21   22 1
  38   21   37 1
  39   21   38 1
  40   22   23 1
  41   22   39 1
  42   22   40 1
  43   23   24 1
  44   23   41 1
  45   23   42 1
  46   24   43 1
  47   24   44 1
  48   24   45 1

#	End of record

