#	Name: ASD06340092
#	Creating user name:	WinNT
#	Creation time:	15. 06. 2019 21:06

#	Modifying user name:	WinNT
#	Modification time:	15. 06. 2019 21:06

#	Program:	/corina/corina34_cracker 3.40 0067  02.08.2006

@<TRIPOS>MOLECULE
ASD06340092
  18   18    0    0    0
SMALL
NO_CHARGES


@<TRIPOS>ATOM
   1 S1            -0.0210     1.6939     0.0114 S.3     
   2 N2             0.0021    -0.0041     0.0020 N.am    
   3 C3             1.2962    -0.3594    -0.0122 C.2     
   4 N4             2.1856     0.6226    -0.0155 N.am    
   5 C5             1.6912     1.8721    -0.0040 C.2     
   6 O6             1.6365    -1.5277    -0.0214 O.2     
   7 O7             2.3224     2.9128    -0.0052 O.2     
   8 C8             3.6269     0.3610    -0.0302 C.3     
   9 C9            -1.1568    -0.9002     0.0087 C.3     
  10 C10           -1.4972    -1.3045    -1.4271 C.3     
  11 H11            3.9749     0.3013    -1.0614 H       
  12 H12            4.1482     1.1691     0.4830 H       
  13 H13            3.8302    -0.5822     0.4770 H       
  14 H14           -0.9237    -1.7914     0.5914 H       
  15 H15           -2.0097    -0.3879     0.4538 H       
  16 H16           -2.3595    -1.9712    -1.4222 H       
  17 H17           -1.7304    -0.4133    -2.0099 H       
  18 H18           -0.6443    -1.8168    -1.8723 H       
@<TRIPOS>BOND
   1    1    2 1
   2    1    5 1
   3    2    3 am
   4    2    9 1
   5    3    4 am
   6    3    6 2
   7    4    5 am
   8    4    8 1
   9    5    7 2
  10    8   11 1
  11    8   12 1
  12    8   13 1
  13    9   10 1
  14    9   14 1
  15    9   15 1
  16   10   16 1
  17   10   17 1
  18   10   18 1

#	End of record

