#	Name: ASD06590025
#	Creating user name:	WinNT
#	Creation time:	15. 06. 2019 21:06

#	Modifying user name:	WinNT
#	Modification time:	15. 06. 2019 21:06

#	Program:	/corina/corina34_cracker 3.40 0067  02.08.2006

@<TRIPOS>MOLECULE
ASD06590025
 355  360    0    0    0
SMALL
NO_CHARGES


@<TRIPOS>ATOM
   1 C1            -7.2177    12.9162     0.7434 C.2     
   2 O2            -7.2950    11.7070     0.6904 O.2     
   3 N3            -5.1216    12.6179     1.9293 N.am    
   4 C4            -5.9264    13.5711     1.1612 C.3     
   5 C5            -5.1501    14.0078    -0.0828 C.3     
   6 C6            -5.9591    15.0586    -0.8459 C.3     
   7 C7            -6.0757    16.3270     0.0017 C.3     
   8 C8            -5.2533    15.3883    -2.1627 C.3     
   9 C9           -10.4325    14.1059    -0.6213 C.2     
  10 O10          -10.0944    15.2705    -0.6058 O.2     
  11 N11           -8.2850    13.6744     0.4233 N.am    
  12 C12           -9.5029    13.0442    -0.0924 C.3     
  13 C13          -10.1956    12.2752     1.0344 C.3     
  14 C14          -13.9445    14.5038    -1.2712 C.2     
  15 O15          -14.1982    13.5411    -0.5786 O.2     
  16 N16          -11.6397    13.7612    -1.1116 N.am    
  17 C17          -12.5208    14.7862    -1.6766 C.3     
  18 C18          -12.4117    14.7678    -3.2026 C.3     
  19 C19          -11.0167    15.1650    -3.6113 C.ar    
  20 C20          -10.0714    14.1911    -3.8759 C.ar    
  21 C21           -8.7918    14.5526    -4.2503 C.ar    
  22 C22           -8.4556    15.8940    -4.3613 C.ar    
  23 O23           -7.1975    16.2521    -4.7299 O.3     
  24 C24           -9.4060    16.8692    -4.0958 C.ar    
  25 C25          -10.6857    16.5024    -3.7267 C.ar    
  26 C26          -17.2596    15.6584    -2.2911 C.2     
  27 O27          -16.8168    16.2641    -3.2440 O.2     
  28 N28          -14.9358    15.3211    -1.6783 N.am    
  29 C29          -16.3199    15.0466    -1.2843 C.3     
  30 C30          -16.5868    15.6512     0.0956 C.3     
  31 C31          -15.7337    14.9533     1.1234 C.ar    
  32 C32          -14.4699    15.4326     1.4133 C.ar    
  33 C33          -13.6874    14.7924     2.3560 C.ar    
  34 C34          -14.1689    13.6732     3.0092 C.ar    
  35 C35          -15.4330    13.1945     2.7199 C.ar    
  36 C36          -16.2172    13.8373     1.7803 C.ar    
  37 C37          -20.8355    16.3991    -2.4568 C.2     
  38 O38          -21.0036    16.1233    -1.2877 O.2     
  39 N39          -18.5921    15.5324    -2.1326 N.am    
  40 C40          -19.5056    16.1271    -3.1114 C.3     
  41 C41          -19.7010    15.1595    -4.2803 C.3     
  42 C42          -18.3744    14.9806    -5.0214 C.3     
  43 C43          -18.5698    14.0130    -6.1904 C.3     
  44 N44          -17.2996    13.8416    -6.9000 N.pl3   
  45 C45          -17.2298    13.0118    -7.9939 C.2     
  46 N46          -18.2938    12.3775    -8.3997 N.2     
  47 N47          -16.0378    12.8509    -8.6598 N.pl3   
  48 C48          -24.2131    17.2282    -3.5825 C.2     
  49 O49          -23.9322    17.0368    -4.7468 O.2     
  50 N50          -21.8380    16.9488    -3.1704 N.am    
  51 C51          -23.1308    17.2132    -2.5340 C.3     
  52 C52          -23.0844    18.5706    -1.8296 C.3     
  53 C53          -22.0726    18.5159    -0.6832 C.3     
  54 C54          -22.0261    19.8733     0.0213 C.3     
  55 N55          -21.0573    19.8209     1.1190 N.pl3   
  56 C56          -20.8428    20.9318     1.9001 C.2     
  57 N57          -21.5014    22.0315     1.6640 N.2     
  58 N58          -19.9336    20.8826     2.9302 N.pl3   
  59 C59          -27.7017    18.3054    -3.7622 C.2     
  60 O60          -27.6518    18.8372    -2.6734 O.2     
  61 N61          -25.4932    17.4542    -3.2265 N.am    
  62 C62          -26.5453    17.4687    -4.2458 C.3     
  63 C63          -27.0238    16.0388    -4.5053 C.3     
  64 C64          -25.8823    15.2215    -5.1135 C.3     
  65 C65          -26.3201    13.7626    -5.2576 C.3     
  66 C66          -25.5283    15.7861    -6.4908 C.3     
  67 C67          -31.1805    18.8290    -4.7558 C.2     
  68 O68          -31.1464    17.9204    -5.5584 O.2     
  69 N69          -28.7912    18.4627    -4.5398 N.am    
  70 C70          -29.9154    19.2761    -4.0697 C.3     
  71 C71          -29.6514    20.7476    -4.3951 C.3     
  72 C72          -28.4566    21.2286    -3.6127 C.2     
  73 C73          -27.3530    21.8038    -4.1274 C.2     
  74 N74          -26.5248    22.0841    -3.0743 N.pl3   
  75 C75          -27.1515    21.6702    -1.9520 C.2     
  76 N76          -28.3085    21.1642    -2.2812 N.2     
  77 C77          -34.5667    20.1425    -5.1694 C.2     
  78 O78          -34.2720    21.2116    -4.6784 O.2     
  79 N79          -32.3497    19.4388    -4.4775 N.am    
  80 C80          -33.5795    19.0041    -5.1444 C.3     
  81 C81          -34.1828    17.8226    -4.3823 C.3     
  82 O82          -34.5897    18.2525    -3.0817 O.3     
  83 C83          -38.1363    20.5284    -5.8566 C.2     
  84 O84          -38.3145    19.3296    -5.8997 O.2     
  85 N85          -35.7771    19.9725    -5.7374 N.am    
  86 C86          -36.7367    21.0792    -5.7617 C.3     
  87 C87          -36.4563    21.9709    -6.9729 C.3     
  88 C88          -34.9970    22.4295    -6.9416 C.3     
  89 O89          -36.6985    21.2341    -8.1731 O.3     
  90 C90          -41.4546    21.8638    -6.6107 C.2     
  91 O91          -41.0066    22.9398    -6.9460 O.2     
  92 N92          -39.1898    21.3682    -5.8936 N.am    
  93 C93          -40.5504    20.8328    -5.9859 C.3     
  94 C94          -41.0597    20.4900    -4.5845 C.3     
  95 C95          -40.2170    19.3551    -3.9990 C.3     
  96 C96          -40.7263    19.0123    -2.5976 C.3     
  97 N97          -39.9194    17.9256    -2.0370 N.pl3   
  98 C98          -40.1930    17.4451    -0.7783 C.2     
  99 N99          -39.4751    16.4782    -0.2795 N.2     
 100 N100         -41.2239    17.9842    -0.0457 N.pl3   
 101 C101         -44.2709    23.4687    -6.5143 C.2     
 102 O102         -44.0466    23.3424    -5.3291 O.2     
 103 N103         -42.7610    21.5900    -6.7971 N.am    
 104 C104         -43.6153    22.5446    -7.5079 C.3     
 105 C105         -44.6921    21.7848    -8.2852 C.3     
 106 C106         -44.0409    20.9374    -9.3477 C.2     
 107 O107         -42.8456    21.0155    -9.5375 O.2     
 108 N108         -44.7868    20.0927   -10.0869 N.am    
 109 C109         -47.0238    25.8734    -6.5613 C.2     
 110 O110         -47.3696    25.5403    -7.6749 O.2     
 111 N111         -45.1065    24.4356    -6.9427 N.am    
 112 C112         -45.7438    25.3339    -5.9768 C.3     
 113 C113         -44.7989    26.4948    -5.6596 C.3     
 114 C114         -43.5710    25.9671    -4.9633 C.ar    
 115 C115         -42.4709    25.5776    -5.7048 C.ar    
 116 C116         -41.3442    25.0931    -5.0689 C.ar    
 117 C117         -41.3170    24.9981    -3.6851 C.ar    
 118 O118         -40.2097    24.5222    -3.0572 O.3     
 119 C119         -42.4220    25.3900    -2.9434 C.ar    
 120 C120         -43.5443    25.8786    -3.5837 C.ar    
 121 C121         -49.3640    28.5675    -5.8975 C.2     
 122 O122         -48.5692    29.1387    -5.1812 O.2     
 123 N123         -47.7842    26.7261    -5.8463 N.am    
 124 C124         -49.0816    27.1637    -6.3673 C.3     
 125 C125         -50.1781    26.2255    -5.8590 C.3     
 126 C126         -50.0881    26.1140    -4.3357 C.3     
 127 C127         -50.4673    27.4544    -3.7030 C.3     
 128 C128         -49.9945    24.8409    -6.4835 C.3     
 129 C129         -52.3136    30.7239    -5.7825 C.2     
 130 O130         -53.0362    29.8530    -6.2187 O.2     
 131 N131         -50.4997    29.1883    -6.2734 N.am    
 132 C132         -50.8220    30.5132    -5.7378 C.3     
 133 C133         -50.1300    31.5862    -6.5808 C.3     
 134 C134         -48.6359    31.4511    -6.4379 C.2     
 135 C135         -47.7543    31.3071    -7.4458 C.2     
 136 N136         -46.5124    31.2222    -6.8765 N.pl3   
 137 C137         -46.6784    31.3173    -5.5397 C.2     
 138 N138         -47.9504    31.4590    -5.2851 N.2     
 139 C139         -54.5919    33.5612    -5.4336 C.2     
 140 O140         -53.6823    34.3634    -5.4347 O.2     
 141 N141         -52.8445    31.8800    -5.3376 N.am    
 142 C142         -54.2944    32.0848    -5.3810 C.3     
 143 C143         -54.9326    31.4803    -4.1287 C.3     
 144 C144         -54.7376    29.9628    -4.1388 C.3     
 145 S145         -55.4942    29.2461    -2.6541 S.3     
 146 C146         -55.1649    27.4723    -2.8439 C.3     
 147 C147         -56.1720    35.9852    -4.1314 C.2     
 148 O148         -55.9620    35.2597    -3.1883 O.2     
 149 N149         -55.8687    33.9902    -5.4794 N.am    
 150 C150         -56.1579    35.4254    -5.5305 C.3     
 151 C151         -57.5242    35.6475    -6.1824 C.3     
 152 C152         -57.4734    35.1996    -7.6204 C.2     
 153 C153         -58.2972    34.3060    -8.2005 C.2     
 154 N154         -57.9033    34.1939    -9.5066 N.pl3   
 155 C155         -56.8518    35.0235    -9.6793 C.2     
 156 N156         -56.6035    35.6254    -8.5483 N.2     
 157 O157         -56.4178    37.2898    -3.9329 O.3     
 158 C158          -4.2623    13.0635     2.8672 C.2     
 159 O159          -4.0879    14.2548     3.0129 O.2     
 160 C160           8.0886    10.4286    16.7129 C.3     
 161 C161           7.3331    11.4257    15.8320 C.3     
 162 C162           6.4305    10.6647    14.8589 C.3     
 163 C163           5.6750    11.6618    13.9780 C.3     
 164 C164           4.7724    10.9008    13.0048 C.3     
 165 C165           4.0169    11.8979    12.1240 C.3     
 166 C166           3.1143    11.1369    11.1508 C.3     
 167 C167           2.3588    12.1340    10.2700 C.3     
 168 C168           1.4562    11.3730     9.2968 C.3     
 169 C169           0.7007    12.3701     8.4160 C.3     
 170 C170          -0.2019    11.6091     7.4428 C.3     
 171 C171          -0.9574    12.6063     6.5620 C.3     
 172 C172          -1.8600    11.8452     5.5888 C.3     
 173 C173          -2.6155    12.8424     4.7080 C.3     
 174 C174          -3.5181    12.0814     3.7348 C.3     
 175 H175          -5.2072    11.6662     1.7630 H       
 176 H176          -6.1441    14.4429     1.7782 H       
 177 H177          -4.1927    14.4338     0.2172 H       
 178 H178          -4.9782    13.1444    -0.7255 H       
 179 H179          -6.9552    14.6687    -1.0553 H       
 180 H180          -5.0843    16.7524     0.1574 H       
 181 H181          -6.7054    17.0521    -0.5140 H       
 182 H182          -6.5206    16.0802     0.9657 H       
 183 H183          -5.2256    14.4992    -2.7927 H       
 184 H184          -5.7960    16.1813    -2.6772 H       
 185 H185          -4.2354    15.7193    -1.9564 H       
 186 H186          -8.2468    14.6372     0.5344 H       
 187 H187          -9.2432    12.3554    -0.8962 H       
 188 H188         -10.4553    12.9640     1.8383 H       
 189 H189         -11.1017    11.8063     0.6508 H       
 190 H190          -9.5232    11.5073     1.4170 H       
 191 H191         -11.9251    12.8344    -1.0904 H       
 192 H192         -12.2242    15.7663    -1.3029 H       
 193 H193         -12.6262    13.7643    -3.5700 H       
 194 H194         -13.1286    15.4709    -3.6265 H       
 195 H195         -10.3337    13.1470    -3.7893 H       
 196 H196          -8.0536    13.7916    -4.4562 H       
 197 H197          -7.0796    16.3473    -5.6850 H       
 198 H198          -9.1466    17.9141    -4.1811 H       
 199 H199         -11.4271    17.2612    -3.5241 H       
 200 H200         -14.7329    16.0911    -2.2323 H       
 201 H201         -16.4798    13.9690    -1.2459 H       
 202 H202         -16.3417    16.7132     0.0805 H       
 203 H203         -17.6390    15.5247     0.3503 H       
 204 H204         -14.0937    16.3069     0.9030 H       
 205 H205         -12.6997    15.1664     2.5820 H       
 206 H206         -13.5572    13.1726     3.7452 H       
 207 H207         -15.8090    12.3200     3.2299 H       
 208 H208         -17.2063    13.4655     1.5570 H       
 209 H209         -18.9462    15.0480    -1.3705 H       
 210 H210         -19.0842    17.0623    -3.4803 H       
 211 H211         -20.0383    14.1949    -3.9011 H       
 212 H212         -20.4479    15.5623    -4.9645 H       
 213 H213         -18.0371    15.9452    -5.4007 H       
 214 H214         -17.6275    14.5778    -4.3373 H       
 215 H215         -18.9071    13.0484    -5.8111 H       
 216 H216         -19.3167    14.4158    -6.8745 H       
 217 H217         -16.5078    14.3136    -6.5980 H       
 218 H218         -18.2446    11.7920    -9.1715 H       
 219 H219         -15.2461    13.3229    -8.3578 H       
 220 H220         -15.9886    12.2655    -9.4316 H       
 221 H221         -21.7035    17.1694    -4.1053 H       
 222 H222         -23.3429    16.4321    -1.8040 H       
 223 H223         -22.7852    19.3395    -2.5418 H       
 224 H224         -24.0713    18.8076    -1.4321 H       
 225 H225         -22.3717    17.7469     0.0291 H       
 226 H226         -21.0857    18.2789    -1.0806 H       
 227 H227         -21.7270    20.6422    -0.6910 H       
 228 H228         -23.0130    20.1103     0.4187 H       
 229 H229         -20.5672    19.0025     1.2946 H       
 230 H230         -21.3500    22.8153     2.2151 H       
 231 H231         -19.4435    20.0642     3.1059 H       
 232 H232         -19.7823    21.6664     3.4813 H       
 233 H233         -25.7178    17.6072    -2.2954 H       
 234 H234         -26.1509    17.8930    -5.1691 H       
 235 H235         -27.3357    15.5838    -3.5652 H       
 236 H236         -27.8660    16.0574    -5.1970 H       
 237 H237         -25.0094    15.2764    -4.4630 H       
 238 H238         -27.1929    13.7077    -5.9081 H       
 239 H239         -25.5068    13.1803    -5.6908 H       
 240 H240         -26.5723    13.3603    -4.2764 H       
 241 H241         -26.4012    15.7312    -7.1413 H       
 242 H242         -25.2164    16.8255    -6.3882 H       
 243 H243         -24.7151    15.2038    -6.9241 H       
 244 H244         -28.8311    18.0374    -5.4107 H       
 245 H245         -30.0248    19.1563    -2.9918 H       
 246 H246         -29.4540    20.8540    -5.4618 H       
 247 H247         -30.5249    21.3415    -4.1262 H       
 248 H248         -27.1587    22.0048    -5.1705 H       
 249 H249         -25.6509    22.5020    -3.1247 H       
 250 H250         -26.7616    21.7487    -0.9478 H       
 251 H251         -32.3769    20.1655    -3.8355 H       
 252 H252         -33.3507    18.6991    -6.1656 H       
 253 H253         -35.0474    17.4426    -4.9264 H       
 254 H254         -33.4375    17.0329    -4.2872 H       
 255 H255         -34.9823    17.5533    -2.5412 H       
 256 H256         -36.0128    19.1175    -6.1300 H       
 257 H257         -36.6382    21.6656    -4.8481 H       
 258 H258         -37.1115    22.8415    -6.9426 H       
 259 H259         -34.3418    21.5589    -6.9720 H       
 260 H260         -34.7972    23.0648    -7.8045 H       
 261 H261         -34.8123    22.9915    -6.0262 H       
 262 H262         -36.1490    20.4440    -8.2672 H       
 263 H263         -39.0472    22.3270    -5.8591 H       
 264 H264         -40.5457    19.9329    -6.6010 H       
 265 H265         -40.9809    21.3686    -3.9442 H       
 266 H266         -42.1017    20.1756    -4.6434 H       
 267 H267         -40.2958    18.4765    -4.6392 H       
 268 H268         -39.1749    19.6694    -3.9400 H       
 269 H269         -40.6475    19.8909    -1.9573 H       
 270 H270         -41.7683    18.6980    -2.6565 H       
 271 H271         -39.1921    17.5452    -2.5538 H       
 272 H272         -39.6682    16.1392     0.6086 H       
 273 H273         -41.7582    18.7037    -0.4169 H       
 274 H274         -41.4170    17.6452     0.8424 H       
 275 H275         -43.1357    20.7610    -6.4605 H       
 276 H276         -43.0097    23.1277    -8.2016 H       
 277 H277         -45.2503    21.1450    -7.6017 H       
 278 H278         -45.3720    22.4962    -8.7539 H       
 279 H279         -45.7428    20.0302    -9.9351 H       
 280 H280         -44.3677    19.5472   -10.7708 H       
 281 H281         -45.2858    24.5366    -7.8906 H       
 282 H282         -45.9652    24.7852    -5.0615 H       
 283 H283         -44.5070    26.9892    -6.5861 H       
 284 H284         -45.3059    27.2089    -5.0107 H       
 285 H285         -42.4926    25.6518    -6.7820 H       
 286 H286         -40.4855    24.7883    -5.6486 H       
 287 H287         -39.5651    25.2048    -2.8255 H       
 288 H288         -42.4033    25.3166    -1.8660 H       
 289 H289         -44.4031    26.1880    -3.0065 H       
 290 H290         -47.4725    27.0500    -4.9868 H       
 291 H291         -49.0615    27.1424    -7.4569 H       
 292 H292         -51.1542    26.6230    -6.1372 H       
 293 H293         -50.7728    25.3410    -3.9870 H       
 294 H294         -49.0692    25.8527    -4.0501 H       
 295 H295         -50.6208    27.3203    -2.6322 H       
 296 H296         -49.6652    28.1739    -3.8677 H       
 297 H297         -51.3861    27.8242    -4.1582 H       
 298 H298         -49.0625    24.4022    -6.1270 H       
 299 H299         -50.8295    24.2005    -6.1993 H       
 300 H300         -49.9606    24.9335    -7.5690 H       
 301 H301         -51.1037    28.7578    -6.8985 H       
 302 H302         -50.4760    30.5823    -4.7065 H       
 303 H303         -50.4077    31.4612    -7.6274 H       
 304 H304         -50.4399    32.5734    -6.2381 H       
 305 H305         -47.9832    31.2661    -8.5004 H       
 306 H306         -45.6703    31.1139    -7.3457 H       
 307 H307         -45.8888    31.2855    -4.8035 H       
 308 H308         -52.2665    32.5766    -4.9887 H       
 309 H309         -54.7035    31.6000    -6.2674 H       
 310 H310         -54.4605    31.9013    -3.2410 H       
 311 H311         -55.9981    31.7096    -4.1171 H       
 312 H312         -55.2096    29.5417    -5.0265 H       
 313 H313         -53.6721    29.7334    -4.1505 H       
 314 H314         -55.5819    26.9323    -1.9939 H       
 315 H315         -55.6262    27.1136    -3.7640 H       
 316 H316         -54.0887    27.3053    -2.8880 H       
 317 H317         -56.5962    33.3486    -5.4785 H       
 318 H318         -55.3896    35.9302    -6.1161 H       
 319 H319         -58.2795    35.0707    -5.6486 H       
 320 H320         -57.7789    36.7065    -6.1405 H       
 321 H321         -59.1117    33.7788    -7.7262 H       
 322 H322         -58.3045    33.6249   -10.1820 H       
 323 H323         -56.3089    35.1680   -10.6017 H       
 324 H324         -56.4163    37.6025    -3.0179 H       
 325 H325           8.6978     9.7782    16.0852 H       
 326 H326           8.7316    10.9708    17.4062 H       
 327 H327           7.3745     9.8264    17.2748 H       
 328 H328           6.7238    12.0761    16.4597 H       
 329 H329           8.0471    12.0279    15.2702 H       
 330 H330           7.0397    10.0143    14.2312 H       
 331 H331           5.7164    10.0625    15.4207 H       
 332 H332           5.0657    12.3122    14.6057 H       
 333 H333           6.3890    12.2640    13.4162 H       
 334 H334           5.3816    10.2504    12.3772 H       
 335 H335           4.0584    10.2987    13.5667 H       
 336 H336           3.4076    12.5483    12.7517 H       
 337 H337           4.7309    12.5001    11.5621 H       
 338 H338           3.7235    10.4865    10.5232 H       
 339 H339           2.4003    10.5348    11.7127 H       
 340 H340           1.7495    12.7844    10.8977 H       
 341 H341           3.0728    12.7362     9.7081 H       
 342 H342           2.0654    10.7227     8.6692 H       
 343 H343           0.7422    10.7709     9.8587 H       
 344 H344           0.0914    13.0205     9.0437 H       
 345 H345           1.4147    12.9723     7.8541 H       
 346 H346           0.4073    10.9588     6.8151 H       
 347 H347          -0.9159    11.0070     8.0047 H       
 348 H348          -1.5666    13.2566     7.1896 H       
 349 H349          -0.2434    13.2084     6.0001 H       
 350 H350          -1.2508    11.1949     4.9611 H       
 351 H351          -2.5740    11.2431     6.1507 H       
 352 H352          -3.2247    13.4927     5.3356 H       
 353 H353          -1.9015    13.4445     4.1461 H       
 354 H354          -4.2321    11.4792     4.2966 H       
 355 H355          -2.9089    11.4310     3.1071 H       
@<TRIPOS>BOND
   1    1    2 2
   2    1    4 1
   3    1   11 am
   4    3  158 am
   5    3    4 1
   6    3  175 1
   7    4    5 1
   8    4  176 1
   9    5    6 1
  10    5  177 1
  11    5  178 1
  12    6    7 1
  13    6    8 1
  14    6  179 1
  15    7  180 1
  16    7  181 1
  17    7  182 1
  18    8  183 1
  19    8  184 1
  20    8  185 1
  21    9   10 2
  22    9   12 1
  23    9   16 am
  24   11   12 1
  25   11  186 1
  26   12   13 1
  27   12  187 1
  28   13  188 1
  29   13  189 1
  30   13  190 1
  31   14   15 2
  32   14   17 1
  33   14   28 am
  34   16   17 1
  35   16  191 1
  36   17   18 1
  37   17  192 1
  38   18   19 1
  39   18  193 1
  40   18  194 1
  41   19   20 ar
  42   19   25 ar
  43   20   21 ar
  44   20  195 1
  45   21   22 ar
  46   21  196 1
  47   22   23 1
  48   22   24 ar
  49   23  197 1
  50   24   25 ar
  51   24  198 1
  52   25  199 1
  53   26   27 2
  54   26   29 1
  55   26   39 am
  56   28   29 1
  57   28  200 1
  58   29   30 1
  59   29  201 1
  60   30   31 1
  61   30  202 1
  62   30  203 1
  63   31   32 ar
  64   31   36 ar
  65   32   33 ar
  66   32  204 1
  67   33   34 ar
  68   33  205 1
  69   34   35 ar
  70   34  206 1
  71   35   36 ar
  72   35  207 1
  73   36  208 1
  74   37   38 2
  75   37   40 1
  76   37   50 am
  77   39   40 1
  78   39  209 1
  79   40   41 1
  80   40  210 1
  81   41   42 1
  82   41  211 1
  83   41  212 1
  84   42   43 1
  85   42  213 1
  86   42  214 1
  87   43   44 1
  88   43  215 1
  89   43  216 1
  90   44   45 1
  91   44  217 1
  92   45   46 2
  93   45   47 1
  94   46  218 1
  95   47  219 1
  96   47  220 1
  97   48   49 2
  98   48   51 1
  99   48   61 am
 100   50   51 1
 101   50  221 1
 102   51   52 1
 103   51  222 1
 104   52   53 1
 105   52  223 1
 106   52  224 1
 107   53   54 1
 108   53  225 1
 109   53  226 1
 110   54   55 1
 111   54  227 1
 112   54  228 1
 113   55   56 1
 114   55  229 1
 115   56   57 2
 116   56   58 1
 117   57  230 1
 118   58  231 1
 119   58  232 1
 120   59   60 2
 121   59   62 1
 122   59   69 am
 123   61   62 1
 124   61  233 1
 125   62   63 1
 126   62  234 1
 127   63   64 1
 128   63  235 1
 129   63  236 1
 130   64   65 1
 131   64   66 1
 132   64  237 1
 133   65  238 1
 134   65  239 1
 135   65  240 1
 136   66  241 1
 137   66  242 1
 138   66  243 1
 139   67   68 2
 140   67   70 1
 141   67   79 am
 142   69   70 1
 143   69  244 1
 144   70   71 1
 145   70  245 1
 146   71   72 1
 147   71  246 1
 148   71  247 1
 149   72   73 2
 150   72   76 1
 151   73   74 1
 152   73  248 1
 153   74   75 1
 154   74  249 1
 155   75   76 2
 156   75  250 1
 157   77   78 2
 158   77   80 1
 159   77   85 am
 160   79   80 1
 161   79  251 1
 162   80   81 1
 163   80  252 1
 164   81   82 1
 165   81  253 1
 166   81  254 1
 167   82  255 1
 168   83   84 2
 169   83   86 1
 170   83   92 am
 171   85   86 1
 172   85  256 1
 173   86   87 1
 174   86  257 1
 175   87   88 1
 176   87   89 1
 177   87  258 1
 178   88  259 1
 179   88  260 1
 180   88  261 1
 181   89  262 1
 182   90   91 2
 183   90   93 1
 184   90  103 am
 185   92   93 1
 186   92  263 1
 187   93   94 1
 188   93  264 1
 189   94   95 1
 190   94  265 1
 191   94  266 1
 192   95   96 1
 193   95  267 1
 194   95  268 1
 195   96   97 1
 196   96  269 1
 197   96  270 1
 198   97   98 1
 199   97  271 1
 200   98   99 2
 201   98  100 1
 202   99  272 1
 203  100  273 1
 204  100  274 1
 205  101  102 2
 206  101  104 1
 207  101  111 am
 208  103  104 1
 209  103  275 1
 210  104  105 1
 211  104  276 1
 212  105  106 1
 213  105  277 1
 214  105  278 1
 215  106  107 2
 216  106  108 am
 217  108  279 1
 218  108  280 1
 219  109  110 2
 220  109  112 1
 221  109  123 am
 222  111  112 1
 223  111  281 1
 224  112  113 1
 225  112  282 1
 226  113  114 1
 227  113  283 1
 228  113  284 1
 229  114  115 ar
 230  114  120 ar
 231  115  116 ar
 232  115  285 1
 233  116  117 ar
 234  116  286 1
 235  117  118 1
 236  117  119 ar
 237  118  287 1
 238  119  120 ar
 239  119  288 1
 240  120  289 1
 241  121  122 2
 242  121  124 1
 243  121  131 am
 244  123  124 1
 245  123  290 1
 246  124  125 1
 247  124  291 1
 248  125  126 1
 249  125  128 1
 250  125  292 1
 251  126  127 1
 252  126  293 1
 253  126  294 1
 254  127  295 1
 255  127  296 1
 256  127  297 1
 257  128  298 1
 258  128  299 1
 259  128  300 1
 260  129  130 2
 261  129  132 1
 262  129  141 am
 263  131  132 1
 264  131  301 1
 265  132  133 1
 266  132  302 1
 267  133  134 1
 268  133  303 1
 269  133  304 1
 270  134  135 2
 271  134  138 1
 272  135  136 1
 273  135  305 1
 274  136  137 1
 275  136  306 1
 276  137  138 2
 277  137  307 1
 278  139  140 2
 279  139  142 1
 280  139  149 am
 281  141  142 1
 282  141  308 1
 283  142  143 1
 284  142  309 1
 285  143  144 1
 286  143  310 1
 287  143  311 1
 288  144  145 1
 289  144  312 1
 290  144  313 1
 291  145  146 1
 292  146  314 1
 293  146  315 1
 294  146  316 1
 295  147  148 2
 296  147  150 1
 297  147  157 1
 298  149  150 1
 299  149  317 1
 300  150  151 1
 301  150  318 1
 302  151  152 1
 303  151  319 1
 304  151  320 1
 305  152  153 2
 306  152  156 1
 307  153  154 1
 308  153  321 1
 309  154  155 1
 310  154  322 1
 311  155  156 2
 312  155  323 1
 313  157  324 1
 314  158  159 2
 315  158  174 1
 316  160  161 1
 317  160  325 1
 318  160  326 1
 319  160  327 1
 320  161  162 1
 321  161  328 1
 322  161  329 1
 323  162  163 1
 324  162  330 1
 325  162  331 1
 326  163  164 1
 327  163  332 1
 328  163  333 1
 329  164  165 1
 330  164  334 1
 331  164  335 1
 332  165  166 1
 333  165  336 1
 334  165  337 1
 335  166  167 1
 336  166  338 1
 337  166  339 1
 338  167  168 1
 339  167  340 1
 340  167  341 1
 341  168  169 1
 342  168  342 1
 343  168  343 1
 344  169  170 1
 345  169  344 1
 346  169  345 1
 347  170  171 1
 348  170  346 1
 349  170  347 1
 350  171  172 1
 351  171  348 1
 352  171  349 1
 353  172  173 1
 354  172  350 1
 355  172  351 1
 356  173  174 1
 357  173  352 1
 358  173  353 1
 359  174  354 1
 360  174  355 1

#	End of record

