#	Name: ASD04640002
#	Creating user name:	WinNT
#	Creation time:	15. 06. 2019 20:52

#	Modifying user name:	WinNT
#	Modification time:	15. 06. 2019 20:52

#	Program:	/corina/corina34_cracker 3.40 0067  02.08.2006

@<TRIPOS>MOLECULE
ASD04640002
  62   66    0    0    0
SMALL
NO_CHARGES


@<TRIPOS>ATOM
   1 C1            -0.0166     1.3725     0.0096 C.ar    
   2 C2             0.0021    -0.0041     0.0020 C.ar    
   3 C3             1.2194    -0.6797    -0.0132 C.ar    
   4 C4             2.4198     0.0571    -0.0207 C.ar    
   5 C5             2.3741     1.4574    -0.0127 C.ar    
   6 C6             1.1690     2.0969     0.0022 C.ar    
   7 N7             1.5553    -2.0128    -0.0236 N.pl3   
   8 C8             2.9322    -2.1245    -0.0373 C.2     
   9 C9             3.4800    -0.8812    -0.0359 C.2     
  10 C10            3.6849    -3.3878    -0.0513 C.2     
  11 O11            4.9012    -3.3710    -0.0628 O.2     
  12 N12            3.0271    -4.5642    -0.0514 N.am    
  13 C13            3.7770    -5.8227    -0.0653 C.3     
  14 C14            2.9091    -6.9267    -0.6726 C.3     
  15 C15            1.6409    -7.0979     0.1660 C.3     
  16 C16            2.0237    -7.4794     1.5974 C.3     
  17 C17            2.8915    -6.3753     2.2047 C.3     
  18 C18            4.1597    -6.2041     1.3661 C.3     
  19 C19            0.7555    -7.6506     2.4360 C.3     
  20 C20            1.1309    -8.1525     3.8318 C.3     
  21 N21           -0.0867    -8.3169     4.6369 N.3     
  22 C22            0.2051    -9.0186     5.8972 C.3     
  23 C23           -0.9846    -8.8373     6.8401 C.3     
  24 C24           -2.2649    -9.1950     6.1287 C.ar    
  25 C25           -2.3270    -9.2836     4.7528 C.ar    
  26 C26           -1.1210    -9.0344     3.8851 C.3     
  27 C27           -3.3981    -9.4373     6.8935 C.ar    
  28 C28           -4.5925    -9.7653     6.2914 C.ar    
  29 C29           -4.6636    -9.8539     4.8994 C.ar    
  30 C30           -3.5227    -9.6109     4.1361 C.ar    
  31 C31           -5.8996   -10.1930     4.2608 C.1     
  32 N32           -6.8801   -10.4621     3.7542 N.1     
  33 H33           -0.9621     1.8944     0.0169 H       
  34 H34           -0.9249    -0.5583     0.0082 H       
  35 H35            3.2903     2.0290    -0.0184 H       
  36 H36            1.1363     3.1764     0.0079 H       
  37 H37            0.9286    -2.7531    -0.0216 H       
  38 H38            4.5350    -0.6501    -0.0450 H       
  39 H39            2.0573    -4.5776    -0.0422 H       
  40 H40            4.6804    -5.7007    -0.6627 H       
  41 H41            2.6364    -6.6549    -1.6923 H       
  42 H42            3.4670    -7.8631    -0.6830 H       
  43 H43            1.0830    -6.1616     0.1764 H       
  44 H44            1.0227    -7.8844    -0.2666 H       
  45 H45            2.5816    -8.4157     1.5871 H       
  46 H46            2.3336    -5.4390     2.2151 H       
  47 H47            3.1642    -6.6471     3.2245 H       
  48 H48            4.7176    -7.1405     1.3558 H       
  49 H49            4.7780    -5.4176     1.7988 H       
  50 H50            0.2434    -6.6921     2.5202 H       
  51 H51            0.0966    -8.3735     1.9550 H       
  52 H52            1.6430    -9.1111     3.7476 H       
  53 H53            1.7898    -7.4296     4.3128 H       
  54 H54            0.3569   -10.0796     5.6990 H       
  55 H55            1.1009    -8.5963     6.3525 H       
  56 H56           -0.8601    -9.4844     7.7083 H       
  57 H57           -1.0311    -7.7989     7.1684 H       
  58 H58           -1.4163    -8.4392     3.0210 H       
  59 H59           -0.7201    -9.9888     3.5437 H       
  60 H60           -3.3424    -9.3683     7.9698 H       
  61 H61           -5.4697    -9.9534     6.8927 H       
  62 H62           -3.5718    -9.6778     3.0593 H       
@<TRIPOS>BOND
   1    1    2 ar
   2    1    6 ar
   3    1   33 1
   4    2    3 ar
   5    2   34 1
   6    3    4 ar
   7    3    7 1
   8    4    5 ar
   9    4    9 1
  10    5    6 ar
  11    5   35 1
  12    6   36 1
  13    7    8 1
  14    7   37 1
  15    8    9 2
  16    8   10 1
  17    9   38 1
  18   10   11 2
  19   10   12 am
  20   12   13 1
  21   12   39 1
  22   13   14 1
  23   13   18 1
  24   13   40 1
  25   14   15 1
  26   14   41 1
  27   14   42 1
  28   15   16 1
  29   15   43 1
  30   15   44 1
  31   16   17 1
  32   16   19 1
  33   16   45 1
  34   17   18 1
  35   17   46 1
  36   17   47 1
  37   18   48 1
  38   18   49 1
  39   19   20 1
  40   19   50 1
  41   19   51 1
  42   20   21 1
  43   20   52 1
  44   20   53 1
  45   21   22 1
  46   21   26 1
  47   22   23 1
  48   22   54 1
  49   22   55 1
  50   23   24 1
  51   23   56 1
  52   23   57 1
  53   24   25 ar
  54   24   27 ar
  55   25   26 1
  56   25   30 ar
  57   26   58 1
  58   26   59 1
  59   27   28 ar
  60   27   60 1
  61   28   29 ar
  62   28   61 1
  63   29   30 ar
  64   29   31 1
  65   30   62 1
  66   31   32 3

#	End of record

