#	Name: ASD01815955
#	Creating user name:	WinNT
#	Creation time:	15. 06. 2019 19:34

#	Modifying user name:	WinNT
#	Modification time:	15. 06. 2019 19:34

#	Program:	/corina/corina34_cracker 3.40 0067  02.08.2006

@<TRIPOS>MOLECULE
ASD01815955
  63   68    0    0    0
SMALL
NO_CHARGES


@<TRIPOS>ATOM
   1 C1             1.1863     2.2607    -0.5295 C.ar    
   2 C2             0.8023     0.9299    -0.5131 C.ar    
   3 C3             1.7404    -0.0716    -0.3558 C.ar    
   4 C4             3.0873     0.2504    -0.2121 C.ar    
   5 C5             3.4738     1.6003    -0.2296 C.ar    
   6 C6             2.5181     2.6017    -0.3885 C.ar    
   7 N7             4.0328    -0.7493    -0.0535 N.pl3   
   8 C8             5.3439    -0.4991     0.0898 C.2     
   9 C9             5.8388     0.7815     0.0883 C.2     
  10 C10            4.9057     1.9194    -0.0758 C.2     
  11 C11            7.1601     1.3881     0.2165 C.2     
  12 N12            6.9714     2.7227     0.1314 N.am    
  13 N13            5.6154     3.0108    -0.0429 N.2     
  14 C14            7.9898     3.6813     0.2068 C.ar    
  15 O15            8.2218     0.8064     0.3703 O.2     
  16 C16            3.5814    -2.1429    -0.0411 C.3     
  17 C17            3.4352    -2.6362    -1.4576 C.ar    
  18 C18            4.5181    -2.5899    -2.3200 C.ar    
  19 C19            4.3880    -3.0420    -3.6203 C.ar    
  20 C20            3.1661    -3.5438    -4.0607 C.ar    
  21 C21            2.0807    -3.5877    -3.1882 C.ar    
  22 C22            2.2217    -3.1390    -1.8906 C.ar    
  23 F23            2.8916     3.8999    -0.4051 F       
  24 F24            1.3506    -1.3651    -0.3409 F       
  25 C25            8.7070     4.0255    -0.9312 C.ar    
  26 C26            9.7108     4.9712    -0.8539 C.ar    
  27 C27           10.0029     5.5758     0.3551 C.ar    
  28 C28            9.2917     5.2365     1.4913 C.ar    
  29 C29            8.2813     4.2947     1.4204 C.ar    
  30 F30            7.5863     3.9631     2.5304 F       
  31 F31            5.7025    -2.1021    -1.8905 F       
  32 C32            3.0201    -4.0303    -5.4559 C.2     
  33 C33            4.0262    -4.0459    -6.4415 C.2     
  34 N34            3.5150    -4.5452    -7.5355 N.2     
  35 N35            2.1736    -4.8654    -7.2939 N.pl3   
  36 C36            1.8886    -4.5489    -6.0147 C.2     
  37 C37            1.2420    -5.4492    -8.2622 C.3     
  38 C38            1.1951    -4.5739    -9.5163 C.3     
  39 C39            2.5612    -4.5958   -10.2049 C.3     
  40 C40            0.1319    -5.1134   -10.4752 C.3     
  41 H41            0.4432     3.0339    -0.6573 H       
  42 H42           -0.2408     0.6729    -0.6240 H       
  43 H43            6.0271    -1.3269     0.2097 H       
  44 H44            4.3130    -2.7572     0.4838 H       
  45 H45            2.6197    -2.2089     0.4677 H       
  46 H46            5.2322    -3.0056    -4.2929 H       
  47 H47            1.1312    -3.9761    -3.5256 H       
  48 H48            1.3804    -3.1730    -1.2143 H       
  49 H49            8.4804     3.5540    -1.8760 H       
  50 H50           10.2688     5.2386    -1.7390 H       
  51 H51           10.7887     6.3145     0.4120 H       
  52 H52            9.5226     5.7103     2.4340 H       
  53 H53            5.0429    -3.7041    -6.3152 H       
  54 H54            0.9354    -4.6764    -5.5233 H       
  55 H55            1.5774    -6.4510    -8.5307 H       
  56 H56            0.2470    -5.5053    -7.8209 H       
  57 H57            0.9459    -3.5505    -9.2360 H       
  58 H58            2.5278    -3.9723   -11.0983 H       
  59 H59            3.3187    -4.2116    -9.5218 H       
  60 H60            2.8104    -5.6193   -10.4852 H       
  61 H61           -0.8413    -5.0978    -9.9846 H       
  62 H62            0.0985    -4.4898   -11.3686 H       
  63 H63            0.3811    -6.1368   -10.7555 H       
@<TRIPOS>BOND
   1    1    2 ar
   2    1    6 ar
   3    1   41 1
   4    2    3 ar
   5    2   42 1
   6    3    4 ar
   7    3   24 1
   8    4    5 ar
   9    4    7 1
  10    5    6 ar
  11    5   10 1
  12    6   23 1
  13    7    8 1
  14    7   16 1
  15    8    9 2
  16    8   43 1
  17    9   10 1
  18    9   11 1
  19   10   13 2
  20   11   12 am
  21   11   15 2
  22   12   13 1
  23   12   14 1
  24   14   25 ar
  25   14   29 ar
  26   16   17 1
  27   16   44 1
  28   16   45 1
  29   17   18 ar
  30   17   22 ar
  31   18   19 ar
  32   18   31 1
  33   19   20 ar
  34   19   46 1
  35   20   21 ar
  36   20   32 1
  37   21   22 ar
  38   21   47 1
  39   22   48 1
  40   25   26 ar
  41   25   49 1
  42   26   27 ar
  43   26   50 1
  44   27   28 ar
  45   27   51 1
  46   28   29 ar
  47   28   52 1
  48   29   30 1
  49   32   33 1
  50   32   36 2
  51   33   34 2
  52   33   53 1
  53   34   35 1
  54   35   36 1
  55   35   37 1
  56   36   54 1
  57   37   38 1
  58   37   55 1
  59   37   56 1
  60   38   39 1
  61   38   40 1
  62   38   57 1
  63   39   58 1
  64   39   59 1
  65   39   60 1
  66   40   61 1
  67   40   62 1
  68   40   63 1

#	End of record

