#	Name: ASD02560054
#	Creating user name:	WinNT
#	Creation time:	15. 06. 2019 20:24

#	Modifying user name:	WinNT
#	Modification time:	15. 06. 2019 20:24

#	Program:	/corina/corina34_cracker 3.40 0067  02.08.2006

@<TRIPOS>MOLECULE
ASD02560054
  39   40    0    0    0
SMALL
NO_CHARGES


@<TRIPOS>ATOM
   1 C1            -0.0432     0.9670     0.0332 C.ar    
   2 C2             0.1321    -0.3882    -0.1302 C.ar    
   3 C3             1.4072    -0.9225    -0.2412 C.ar    
   4 C4             2.5161    -0.1037    -0.1899 C.ar    
   5 C5             2.3625     1.2676    -0.0259 C.ar    
   6 C6             1.0712     1.8136     0.0875 C.ar    
   7 N7             6.3069     0.3960     1.6769 N.am    
   8 C8             5.1193     0.9805     1.4227 C.2     
   9 C9             4.8198     1.5099     0.0439 C.3     
  10 N10            3.4760     2.0930     0.0260 N.pl3   
  11 O11            4.2917     1.0804     2.3036 O.2     
  12 Cl12           6.8309     0.7593    -2.0687 Cl      
  13 C13            6.7904     2.3055    -1.2804 C.ar    
  14 C14            5.8309     2.5669    -0.3189 C.ar    
  15 C15            7.7214     3.2746    -1.6097 C.ar    
  16 C16            7.6898     4.5054    -0.9816 C.ar    
  17 C17            6.7277     4.7692    -0.0248 C.ar    
  18 C18            5.7995     3.7990     0.3091 C.ar    
  19 C19            0.8930     3.2590     0.2605 C.2     
  20 O20            1.8601     3.9755     0.4121 O.2     
  21 Cl21           4.5913     4.1305     1.5108 Cl      
  22 C22           -0.4915     3.8541     0.2499 C.3     
  23 C23            1.5825    -2.4087    -0.4188 C.3     
  24 H24           -1.0388     1.3776     0.1149 H       
  25 H25           -0.7284    -1.0396    -0.1719 H       
  26 H26            3.5050    -0.5290    -0.2769 H       
  27 H27            6.9687     0.3161     0.9723 H       
  28 H28            6.4996     0.0553     2.5643 H       
  29 H29            4.8717     0.6945    -0.6776 H       
  30 H30            3.3649     3.0563     0.0504 H       
  31 H31            8.4731     3.0692    -2.3575 H       
  32 H32            8.4171     5.2613    -1.2384 H       
  33 H33            6.7036     5.7311     0.4657 H       
  34 H34           -1.2262     3.0624     0.1032 H       
  35 H35           -0.6798     4.3530     1.2006 H       
  36 H36           -0.5698     4.5774    -0.5618 H       
  37 H37            1.5851    -2.6498    -1.4817 H       
  38 H38            2.5279    -2.7188     0.0264 H       
  39 H39            0.7614    -2.9324     0.0707 H       
@<TRIPOS>BOND
   1    1    2 ar
   2    1    6 ar
   3    1   24 1
   4    2    3 ar
   5    2   25 1
   6    3    4 ar
   7    3   23 1
   8    4    5 ar
   9    4   26 1
  10    5    6 ar
  11    5   10 1
  12    6   19 1
  13    7    8 am
  14    7   27 1
  15    7   28 1
  16    8    9 1
  17    8   11 2
  18    9   10 1
  19    9   14 1
  20    9   29 1
  21   10   30 1
  22   12   13 1
  23   13   14 ar
  24   13   15 ar
  25   14   18 ar
  26   15   16 ar
  27   15   31 1
  28   16   17 ar
  29   16   32 1
  30   17   18 ar
  31   17   33 1
  32   18   21 1
  33   19   20 2
  34   19   22 1
  35   22   34 1
  36   22   35 1
  37   22   36 1
  38   23   37 1
  39   23   38 1
  40   23   39 1

#	End of record

