#	Name: ASD05740062
#	Creating user name:	WinNT
#	Creation time:	15. 06. 2019 21:02

#	Modifying user name:	WinNT
#	Modification time:	15. 06. 2019 21:02

#	Program:	/corina/corina34_cracker 3.40 0067  02.08.2006

@<TRIPOS>MOLECULE
ASD05740062
  48   49    0    0    0
SMALL
NO_CHARGES


@<TRIPOS>ATOM
   1 C1            -2.6029    -2.8167     2.1436 C.3     
   2 C2             2.2134    -1.1140     3.8162 C.3     
   3 N3             6.5371     2.9939     5.3068 N.ar    
   4 C4             6.9637     3.2502     4.0770 C.ar    
   5 C5             5.5678     2.1357     5.5477 C.ar    
   6 C6             4.9526     1.4604     4.4918 C.ar    
   7 C7             5.3809     1.7083     3.1710 C.ar    
   8 C8             6.4061     2.6223     2.9735 C.ar    
   9 C9             3.8727     0.4990     4.7175 C.2     
  10 C10            3.3277    -0.1157     3.6352 C.2     
  11 C11            3.8063     0.1814     2.3421 C.2     
  12 O12            4.7986     1.0648     2.1413 O.3     
  13 C13            0.8858    -0.4203     3.6513 C.2     
  14 C14            0.7736     0.9524     3.4974 C.2     
  15 O15            3.3076    -0.3782     1.3823 O.2     
  16 O16            7.9657     4.1452     3.8953 O.3     
  17 C17            3.3798     0.1990     6.1097 C.3     
  18 C18           -0.2797    -1.0834     3.6363 C.2     
  19 S19           -1.6015     0.0563     3.4184 S.3     
  20 C20           -0.4727     1.4036     3.3634 C.2     
  21 N21           -0.4220    -2.4656     3.7722 N.am    
  22 S22           -1.9325    -3.1440     3.7970 S.o2    
  23 O23           -2.6369    -2.3951     4.7780 O.2     
  24 O24           -1.6898    -4.5333     3.9707 O.2     
  25 C25            8.5037     4.7632     5.0661 C.3     
  26 H26           -1.9615    -3.2791     1.3933 H       
  27 H27           -3.6073    -3.2337     2.0697 H       
  28 H28           -2.6429    -1.7407     1.9741 H       
  29 H29            2.3068    -1.9022     3.0691 H       
  30 H30            2.2744    -1.5496     4.8135 H       
  31 H31            5.2483     1.9540     6.5632 H       
  32 H32            6.7632     2.8410     1.9780 H       
  33 H33            1.6323     1.6073     3.4871 H       
  34 H34            3.9437     0.7914     6.8303 H       
  35 H35            2.3215     0.4496     6.1823 H       
  36 H36            3.5177    -0.8609     6.3235 H       
  37 H37           -0.7479     2.4401     3.2353 H       
  38 H38            0.3639    -3.0285     3.8520 H       
  39 H39            9.2958     5.4553     4.7802 H       
  40 H40            7.7148     5.3081     5.5845 H       
  41 H41            8.9111     3.9977     5.7265 H       
  42 C42           14.8230    13.1247    13.6986 C.3     
  43 N43           14.8428    11.6598    13.6905 N.2     
  44 C44           15.3836    11.0473    12.7445 C.1     
  45 O45           15.9061    10.4553    11.8303 O.2     
  46 H46           15.8456    13.5019    13.6908 H       
  47 H47           14.2958    13.4857    12.8155 H       
  48 H48           14.3128    13.4762    14.5953 H       
@<TRIPOS>BOND
   1    1   22 1
   2    1   26 1
   3    1   27 1
   4    1   28 1
   5    2   10 1
   6    2   13 1
   7    2   29 1
   8    2   30 1
   9    3    4 ar
  10    3    5 ar
  11    4   16 1
  12    4    8 ar
  13    5    6 ar
  14    5   31 1
  15    6    7 ar
  16    6    9 1
  17    7    8 ar
  18    7   12 1
  19    8   32 1
  20    9   10 2
  21    9   17 1
  22   10   11 1
  23   11   12 1
  24   11   15 2
  25   13   14 1
  26   13   18 2
  27   14   20 2
  28   14   33 1
  29   16   25 1
  30   17   34 1
  31   17   35 1
  32   17   36 1
  33   18   19 1
  34   18   21 1
  35   19   20 1
  36   20   37 1
  37   21   22 am
  38   21   38 1
  39   22   23 2
  40   22   24 2
  41   25   39 1
  42   25   40 1
  43   25   41 1
  44   42   43 1
  45   42   46 1
  46   42   47 1
  47   42   48 1
  48   43   44 2
  49   44   45 2

#	End of record

