#	Name: ASD01120094
#	Creating user name:	WinNT
#	Creation time:	15. 06. 2019 18:58

#	Modifying user name:	WinNT
#	Modification time:	15. 06. 2019 18:58

#	Program:	/corina/corina34_cracker 3.40 0067  02.08.2006

@<TRIPOS>MOLECULE
ASD01120094
  58   61    0    0    0
SMALL
NO_CHARGES


@<TRIPOS>ATOM
   1 C1             0.1061     1.5920     0.6708 C.ar    
   2 C2             0.1961     0.1951     0.6699 C.ar    
   3 C3            -0.9297    -0.5835     0.4857 C.ar    
   4 C4            -2.1748     0.0373     0.2978 C.ar    
   5 C5            -2.2543     1.4519     0.3005 C.ar    
   6 C6            -1.0977     2.2158     0.4951 C.ar    
   7 N7            -3.2994    -0.6717     0.1140 N.ar    
   8 C8            -4.4481    -0.0631    -0.0594 C.ar    
   9 N9            -4.5708     1.2552    -0.0644 N.ar    
  10 C10           -3.5229     2.0495     0.1082 C.ar    
  11 N11           -3.6657     3.4231     0.1011 N.pl3   
  12 C12           -4.9402     3.9930     0.0308 C.ar    
  13 C13           -6.0094     3.3819     0.6683 C.ar    
  14 C14           -7.2772     3.9537     0.5957 C.ar    
  15 C15           -7.4643     5.1369    -0.1171 C.ar    
  16 C16           -6.3945     5.7392    -0.7491 C.ar    
  17 C17           -5.1353     5.1756    -0.6734 C.ar    
  18 C18           -8.4256     3.3051     1.2749 C.2     
  19 C19           -9.6763     3.8078     1.2426 C.2     
  20 S20          -10.7163     2.7303     2.1706 S.3     
  21 C21           -9.3836     1.7157     2.5108 C.2     
  22 N22           -8.3138     2.1776     1.9622 N.2     
  23 C23           -9.4520     0.4543     3.3326 C.3     
  24 O24            1.2285     2.3373     0.8541 O.3     
  25 O25            1.4046    -0.4015     0.8519 O.3     
  26 C26            1.0728     3.7578     0.8449 C.3     
  27 C27            2.4337     4.4215     1.0646 C.3     
  28 C28            2.1403    -0.7485    -0.3229 C.3     
  29 C29            3.4055    -1.5115     0.0744 C.3     
  30 O30           -0.8328    -1.9402     0.4860 O.3     
  31 C31           -0.8989    -2.5951     1.7544 C.3     
  32 C32           -0.8967    -4.1109     1.5464 C.3     
  33 H33           -1.1546     3.2943     0.4981 H       
  34 H34           -5.3335    -0.6642    -0.2049 H       
  35 H35           -2.8816     3.9924     0.1449 H       
  36 H36           -5.8595     2.4650     1.2191 H       
  37 H37           -8.4464     5.5824    -0.1754 H       
  38 H38           -6.5418     6.6557    -1.3012 H       
  39 H39           -4.3018     5.6508    -1.1693 H       
  40 H40           -9.9856     4.7111     0.7378 H       
  41 H41          -10.4762     0.2956     3.6701 H       
  42 H42           -9.1343    -0.3929     2.7248 H       
  43 H43           -8.7948     0.5479     4.1971 H       
  44 H44            0.6659     4.0724    -0.1162 H       
  45 H45            0.3912     4.0537     1.6424 H       
  46 H46            2.8405     4.1068     2.0256 H       
  47 H47            3.1152     4.1256     0.2670 H       
  48 H48            2.3148     5.5050     1.0575 H       
  49 H49            1.5236    -1.3770    -0.9654 H       
  50 H50            2.4168     0.1590    -0.8597 H       
  51 H51            3.9667    -1.7762    -0.8218 H       
  52 H52            4.0222    -0.8829     0.7168 H       
  53 H53            3.1290    -2.4190     0.6112 H       
  54 H54           -0.0360    -2.3097     2.3560 H       
  55 H55           -1.8137    -2.3002     2.2683 H       
  56 H56           -1.7597    -4.3963     0.9447 H       
  57 H57            0.0181    -4.4059     1.0324 H       
  58 H58           -0.9471    -4.6105     2.5139 H       
@<TRIPOS>BOND
   1    1    2 ar
   2    1   24 1
   3    1    6 ar
   4    2    3 ar
   5    2   25 1
   6    3    4 ar
   7    3   30 1
   8    4    5 ar
   9    4    7 ar
  10    5    6 ar
  11    5   10 ar
  12    6   33 1
  13    7    8 ar
  14    8    9 ar
  15    8   34 1
  16    9   10 ar
  17   10   11 1
  18   11   12 1
  19   11   35 1
  20   12   13 ar
  21   12   17 ar
  22   13   14 ar
  23   13   36 1
  24   14   15 ar
  25   14   18 1
  26   15   16 ar
  27   15   37 1
  28   16   17 ar
  29   16   38 1
  30   17   39 1
  31   18   19 2
  32   18   22 1
  33   19   20 1
  34   19   40 1
  35   20   21 1
  36   21   22 2
  37   21   23 1
  38   23   41 1
  39   23   42 1
  40   23   43 1
  41   24   26 1
  42   25   28 1
  43   26   27 1
  44   26   44 1
  45   26   45 1
  46   27   46 1
  47   27   47 1
  48   27   48 1
  49   28   29 1
  50   28   49 1
  51   28   50 1
  52   29   51 1
  53   29   52 1
  54   29   53 1
  55   30   31 1
  56   31   32 1
  57   31   54 1
  58   31   55 1
  59   32   56 1
  60   32   57 1
  61   32   58 1

#	End of record

