#	Name: ASD01880219
#	Creating user name:	WinNT
#	Creation time:	15. 06. 2019 19:40

#	Modifying user name:	WinNT
#	Modification time:	15. 06. 2019 19:40

#	Program:	/corina/corina34_cracker 3.40 0067  02.08.2006

@<TRIPOS>MOLECULE
ASD01880219
  42   44    0    0    0
SMALL
NO_CHARGES


@<TRIPOS>ATOM
   1 C1            -0.8833     1.4221     0.1287 C.3     
   2 C2            -0.6314    -0.0632     0.0888 C.ar    
   3 C3            -0.1973    -0.7204     1.2251 C.ar    
   4 C4             0.0343    -2.0818     1.1911 C.ar    
   5 C5            -0.1691    -2.7897     0.0155 C.ar    
   6 C6            -0.6047    -2.1280    -1.1234 C.ar    
   7 C7            -0.8403    -0.7674    -1.0827 C.ar    
   8 O8             0.0585    -4.1290    -0.0207 O.3     
   9 C9            -0.0558    -4.7725    -1.2915 C.3     
  10 N10            0.3463     2.1356    -0.2251 N.am    
  11 C11            0.7938    -6.0470    -1.2988 C.3     
  12 C12            0.6035    -6.7702    -2.6347 C.3     
  13 O13           -0.7828    -7.0610    -2.8241 O.3     
  14 C14           -1.6202    -5.9041    -2.8732 C.3     
  15 C15           -1.5192    -5.1461    -1.5469 C.3     
  16 C16            0.7459     2.5292    -1.5849 C.3     
  17 C17            2.0988     3.2376    -1.3792 C.3     
  18 O18            2.3174     3.1695     0.0597 O.3     
  19 C19            1.2878     2.5412     0.6380 C.2     
  20 C20            3.2105     2.4979    -2.1262 C.3     
  21 O21            1.2166     2.3484     1.8356 O.2     
  22 H22           -1.6686     1.6767    -0.5830 H       
  23 H23           -1.1950     1.7109     1.1325 H       
  24 H24           -0.0387    -0.1688     2.1400 H       
  25 H25            0.3738    -2.5947     2.0789 H       
  26 H26           -0.7638    -2.6768    -2.0398 H       
  27 H27           -1.1795    -0.2517    -1.9690 H       
  28 H28            0.2916    -4.0981    -2.0742 H       
  29 H29            1.8444    -5.7851    -1.1728 H       
  30 H30            0.4797    -6.6989    -0.4837 H       
  31 H31            0.9555    -6.1333    -3.4462 H       
  32 H32            1.1724    -7.6999    -2.6290 H       
  33 H33           -1.2973    -5.2559    -3.6878 H       
  34 H34           -2.6532    -6.2099    -3.0393 H       
  35 H35           -1.8801    -5.7798    -0.7368 H       
  36 H36           -2.1229    -4.2400    -1.5984 H       
  37 H37            0.8663     1.6502    -2.2181 H       
  38 H38            0.0160     3.2151    -2.0149 H       
  39 H39            2.0408     4.2751    -1.7083 H       
  40 H40            2.9806     2.4766    -3.1915 H       
  41 H41            4.1584     3.0127    -1.9693 H       
  42 H42            3.2845     1.4776    -1.7499 H       
@<TRIPOS>BOND
   1    1    2 1
   2    1   10 1
   3    1   22 1
   4    1   23 1
   5    2    3 ar
   6    2    7 ar
   7    3    4 ar
   8    3   24 1
   9    4    5 ar
  10    4   25 1
  11    5    6 ar
  12    5    8 1
  13    6    7 ar
  14    6   26 1
  15    7   27 1
  16    8    9 1
  17    9   11 1
  18    9   15 1
  19    9   28 1
  20   10   16 1
  21   10   19 am
  22   11   12 1
  23   11   29 1
  24   11   30 1
  25   12   13 1
  26   12   31 1
  27   12   32 1
  28   13   14 1
  29   14   15 1
  30   14   33 1
  31   14   34 1
  32   15   35 1
  33   15   36 1
  34   16   17 1
  35   16   37 1
  36   16   38 1
  37   17   18 1
  38   17   20 1
  39   17   39 1
  40   18   19 1
  41   19   21 2
  42   20   40 1
  43   20   41 1
  44   20   42 1

#	End of record

