#	Name: ASD03090612
#	Creating user name:	WinNT
#	Creation time:	15. 06. 2019 20:29

#	Modifying user name:	WinNT
#	Modification time:	15. 06. 2019 20:29

#	Program:	/corina/corina34_cracker 3.40 0067  02.08.2006

@<TRIPOS>MOLECULE
ASD03090612
  34   35    0    0    0
SMALL
NO_CHARGES


@<TRIPOS>ATOM
   1 N1            -0.0162     1.3436     0.0094 N.am    
   2 C2             0.0205     0.1479     0.6304 C.2     
   3 O3             1.0744    -0.2840     1.0560 O.2     
   4 N4            -1.1110    -0.5689     0.7797 N.am    
   5 S5            -2.4173    -2.8303     1.6882 S.3     
   6 C6            -1.0732    -1.8026     1.4204 C.2     
   7 N7            -0.0127    -2.3669     1.9144 N.2     
   8 N8            -0.1516    -3.4942     2.4657 N.2     
   9 C9            -1.3496    -3.9855     2.4866 C.2     
  10 C10           -1.7582    -5.3067     3.0853 C.3     
  11 C11            1.1446     2.1281    -0.0715 C.ar    
  12 C12            1.0432     3.5106    -0.2003 C.ar    
  13 C13            2.1913     4.2837    -0.2796 C.ar    
  14 C14            3.4394     3.6784    -0.2304 C.ar    
  15 C15            3.5385     2.2998    -0.1020 C.ar    
  16 C16            2.3936     1.5271    -0.0174 C.ar    
  17 O17            4.5666     4.4368    -0.3086 O.3     
  18 C18            5.1118     4.9174     0.9217 C.3     
  19 O19           -0.1812     4.1023    -0.2488 O.3     
  20 C20           -0.7578     4.5030     0.9958 C.3     
  21 F21            4.7541     1.7123    -0.0543 F       
  22 F22            2.0952     5.6255    -0.4051 F       
  23 H23           -0.8439     1.6600    -0.3851 H       
  24 H24           -1.9518    -0.2243     0.4401 H       
  25 H25           -1.6829    -6.0874     2.3284 H       
  26 H26           -1.1004    -5.5459     3.9208 H       
  27 H27           -2.7870    -5.2423     3.4397 H       
  28 H28            2.4726     0.4550     0.0866 H       
  29 H29            6.0060     5.5063     0.7174 H       
  30 H30            4.3740     5.5406     1.4272 H       
  31 H31            5.3712     4.0721     1.5590 H       
  32 H32           -1.7310     4.9596     0.8151 H       
  33 H33           -0.8794     3.6304     1.6376 H       
  34 H34           -0.1029     5.2247     1.4840 H       
@<TRIPOS>BOND
   1    1    2 am
   2    1   11 1
   3    1   23 1
   4    2    3 2
   5    2    4 am
   6    4    6 1
   7    4   24 1
   8    5    6 1
   9    5    9 1
  10    6    7 2
  11    7    8 1
  12    8    9 2
  13    9   10 1
  14   10   25 1
  15   10   26 1
  16   10   27 1
  17   11   12 ar
  18   11   16 ar
  19   12   13 ar
  20   12   19 1
  21   13   14 ar
  22   13   22 1
  23   14   15 ar
  24   14   17 1
  25   15   16 ar
  26   15   21 1
  27   16   28 1
  28   17   18 1
  29   18   29 1
  30   18   30 1
  31   18   31 1
  32   19   20 1
  33   20   32 1
  34   20   33 1
  35   20   34 1

#	End of record

