#	Name: ASD01028561
#	Creating user name:	WinNT
#	Creation time:	15. 06. 2019 18:57

#	Modifying user name:	WinNT
#	Modification time:	15. 06. 2019 18:57

#	Program:	/corina/corina34_cracker 3.40 0067  02.08.2006

@<TRIPOS>MOLECULE
ASD01028561
  55   60    0    0    0
SMALL
NO_CHARGES


@<TRIPOS>ATOM
   1 N1            -0.0169     1.3921     0.0097 N.2     
   2 N2             0.0021    -0.0041     0.0020 N.pl3   
   3 C3             1.1071     2.0741     0.0026 C.2     
   4 C4             2.3532     1.4124    -0.0128 C.2     
   5 C5             2.4037     0.0542    -0.0206 C.2     
   6 C6             1.2008    -0.6771    -0.0130 C.2     
   7 N7             0.9145    -1.9687    -0.0176 N.2     
   8 N8            -0.3638    -2.1208    -0.0065 N.2     
   9 C9            -0.9586    -0.9539     0.0061 C.2     
  10 C10           -2.4463    -0.7141     0.0218 C.3     
  11 N11           -2.9153    -0.6451     1.4080 N.pl3   
  12 C12           -4.2594    -0.4297     1.6756 C.ar    
  13 C13           -5.1758    -0.2770     0.6484 C.ar    
  14 C14           -6.5151    -0.0625     0.9454 C.ar    
  15 N15           -6.9461     0.0016     2.1838 N.ar    
  16 C16           -6.1165    -0.1372     3.2233 C.ar    
  17 C17           -4.7369    -0.3651     3.0080 C.ar    
  18 C18           -6.5927    -0.0667     4.5457 C.ar    
  19 C19           -5.6925    -0.2171     5.5675 C.ar    
  20 C20           -4.3411    -0.4340     5.2786 C.ar    
  21 N21           -3.9082    -0.5049     4.0437 N.ar    
  22 O22           -6.1113    -0.1553     6.8584 O.3     
  23 C23            1.0647     3.5571     0.0105 C.ar    
  24 C24           -0.1602     4.2210     0.0253 C.ar    
  25 C25            0.9854     6.3277     0.0257 C.ar    
  26 C26            2.2053     5.6718     0.0168 C.ar    
  27 C27            2.2496     4.2900     0.0089 C.ar    
  28 C28           -0.1950     5.6031     0.0331 C.ar    
  29 F29           -1.3821     6.2479     0.0474 F       
  30 F30            3.3537     6.3835     0.0092 F       
  31 C31           -5.1173    -0.3209     7.8716 C.3     
  32 C32           -5.7729    -0.2212     9.2504 C.3     
  33 N33           -4.7538    -0.3909    10.2891 N.pl3   
  34 C34           -4.4993     0.4732    11.2989 C.2     
  35 C35           -3.4893    -0.0721    12.0162 C.2     
  36 N36           -3.1793    -1.2278    11.4180 N.2     
  37 N37           -3.9503    -1.3902    10.4012 N.2     
  38 H38            3.2683     1.9860    -0.0188 H       
  39 H39            3.3547    -0.4576    -0.0328 H       
  40 H40           -2.6682     0.2256    -0.4841 H       
  41 H41           -2.9515    -1.5317    -0.4925 H       
  42 H42           -2.2860    -0.7501     2.1386 H       
  43 H43           -4.8497    -0.3244    -0.3801 H       
  44 H44           -7.2208     0.0552     0.1363 H       
  45 H45           -7.6398     0.1018     4.7496 H       
  46 H46           -3.6397    -0.5512     6.0914 H       
  47 H47           -1.0811     3.6569     0.0303 H       
  48 H48            0.9546     7.4072     0.0322 H       
  49 H49            3.2013     3.7794     0.0020 H       
  50 H50           -4.6468    -1.2981     7.7628 H       
  51 H51           -4.3625     0.4590     7.7709 H       
  52 H52           -6.2433     0.7560     9.3592 H       
  53 H53           -6.5277    -1.0011     9.3511 H       
  54 H54           -5.0010     1.4097    11.4931 H       
  55 H55           -3.0247     0.3442    12.8978 H       
@<TRIPOS>BOND
   1    1    2 1
   2    1    3 2
   3    2    6 1
   4    2    9 1
   5    3    4 1
   6    3   23 1
   7    4    5 2
   8    4   38 1
   9    5    6 1
  10    5   39 1
  11    6    7 2
  12    7    8 1
  13    8    9 2
  14    9   10 1
  15   10   11 1
  16   10   40 1
  17   10   41 1
  18   11   12 1
  19   11   42 1
  20   12   13 ar
  21   12   17 ar
  22   13   14 ar
  23   13   43 1
  24   14   15 ar
  25   14   44 1
  26   15   16 ar
  27   16   17 ar
  28   16   18 ar
  29   17   21 ar
  30   18   19 ar
  31   18   45 1
  32   19   20 ar
  33   19   22 1
  34   20   21 ar
  35   20   46 1
  36   22   31 1
  37   23   24 ar
  38   23   27 ar
  39   24   28 ar
  40   24   47 1
  41   25   26 ar
  42   25   28 ar
  43   25   48 1
  44   26   27 ar
  45   26   30 1
  46   27   49 1
  47   28   29 1
  48   31   32 1
  49   31   50 1
  50   31   51 1
  51   32   33 1
  52   32   52 1
  53   32   53 1
  54   33   34 1
  55   33   37 1
  56   34   35 2
  57   34   54 1
  58   35   36 1
  59   35   55 1
  60   36   37 2

#	End of record

