#	Name: ASD03490114
#	Creating user name:	WinNT
#	Creation time:	15. 06. 2019 20:42

#	Modifying user name:	WinNT
#	Modification time:	15. 06. 2019 20:42

#	Program:	/corina/corina34_cracker 3.40 0067  02.08.2006

@<TRIPOS>MOLECULE
ASD03490114
  69   73    0    0    0
SMALL
NO_CHARGES


@<TRIPOS>ATOM
   1 C1            10.9681     1.3131    -3.6533 C.ar    
   2 C2            11.3999     0.0774    -3.1792 C.ar    
   3 C3            10.9070    -0.4413    -2.0207 C.ar    
   4 C4            10.0388     2.0377    -2.9684 C.ar    
   5 C5             9.5112     1.5335    -1.7723 C.ar    
   6 C6             9.9476     0.2774    -1.2875 C.ar    
   7 N7             9.4463    -0.2091    -0.1462 N.ar    
   8 C8             8.5441     2.2549    -1.0315 C.ar    
   9 N9             8.0845     3.4894    -1.4661 N.pl3   
  10 C10            8.0707     1.6882     0.1414 C.ar    
  11 C11            8.5494     0.4505     0.5492 C.ar    
  12 C12            7.0133     4.1053    -0.8138 C.ar    
  13 C13            7.0230     5.4772    -0.6050 C.ar    
  14 C14            5.9573     6.0848     0.0433 C.ar    
  15 C15            4.8844     5.3187     0.4811 C.ar    
  16 C16            4.8777     3.9528     0.2722 C.ar    
  17 C17            5.9340     3.3453    -0.3783 C.ar    
  18 N18            5.9634     7.4678     0.2562 N.am    
  19 C19            7.1191     8.1009     0.5392 C.2     
  20 O20            8.1640     7.4793     0.5582 O.2     
  21 N21            7.1166     9.4229     0.8011 N.am    
  22 C22            8.3124    10.0780     1.0939 C.2     
  23 N23            8.4574    11.4014     1.3762 N.pl3   
  24 N24            9.8175    11.6425     1.6092 N.2     
  25 C25           10.4665    10.5142     1.4738 C.2     
  26 C26            9.5478     9.5099     1.1556 C.2     
  27 C27           11.9528    10.3279     1.6392 C.3     
  28 C28           12.6034    10.1707     0.2634 C.3     
  29 C29           12.5442    11.5488     2.3466 C.3     
  30 C30           12.2197     9.0749     2.4757 C.3     
  31 C31            7.4296    12.3531     1.4250 C.ar    
  32 C32            7.4846    13.3897     2.3470 C.ar    
  33 C33            6.4705    14.3262     2.3923 C.ar    
  34 C34            5.4011    14.2322     1.5207 C.ar    
  35 C35            5.3435    13.2009     0.6013 C.ar    
  36 C36            6.3572    12.2643     0.5475 C.ar    
  37 C37            4.2960    15.2554     1.5731 C.3     
  38 N38           11.5295     1.8493    -4.9135 N.pl3   
  39 O39           12.3639     1.2103    -5.5290 O.2     
  40 O40           11.1569     2.9296    -5.3351 O.2     
  41 H41           12.1372    -0.4787    -3.7392 H       
  42 H42           11.2519    -1.4016    -1.6668 H       
  43 H43            9.7113     2.9953    -3.3453 H       
  44 H44            8.5068     3.9251    -2.2229 H       
  45 H45            7.3322     2.2067     0.7349 H       
  46 H46            8.1733     0.0181     1.4647 H       
  47 H47            7.8585     6.0706    -0.9460 H       
  48 H48            4.0546     5.7913     0.9857 H       
  49 H49            4.0426     3.3594     0.6142 H       
  50 H50            5.9236     2.2782    -0.5443 H       
  51 H51            5.1360     7.9708     0.2001 H       
  52 H52            6.2831     9.9188     0.7859 H       
  53 H53            9.7778     8.4684     0.9860 H       
  54 H54           12.4132    11.0634    -0.3325 H       
  55 H55           13.6783    10.0360     0.3830 H       
  56 H56           12.1820     9.3009    -0.2405 H       
  57 H57           12.0808    11.6608     3.3268 H       
  58 H58           13.6192    11.4141     2.4662 H       
  59 H59           12.3541    12.4415     1.7507 H       
  60 H60           11.7984     8.2050     1.9718 H       
  61 H61           13.2947     8.9401     2.5954 H       
  62 H62           11.7562     9.1868     3.4559 H       
  63 H63            8.3194    13.4635     3.0283 H       
  64 H64            6.5125    15.1326     3.1095 H       
  65 H65            4.5069    13.1299    -0.0780 H       
  66 H66            6.3139    11.4617    -0.1737 H       
  67 H67            4.5343    16.0822     0.9040 H       
  68 H68            3.3588    14.7943     1.2615 H       
  69 H69            4.1956    15.6299     2.5918 H       
@<TRIPOS>BOND
   1    1    2 ar
   2    1    4 ar
   3    1   38 1
   4    2    3 ar
   5    2   41 1
   6    3    6 ar
   7    3   42 1
   8    4    5 ar
   9    4   43 1
  10    5    6 ar
  11    5    8 ar
  12    6    7 ar
  13    7   11 ar
  14    8    9 1
  15    8   10 ar
  16    9   12 1
  17    9   44 1
  18   10   11 ar
  19   10   45 1
  20   11   46 1
  21   12   13 ar
  22   12   17 ar
  23   13   14 ar
  24   13   47 1
  25   14   15 ar
  26   14   18 1
  27   15   16 ar
  28   15   48 1
  29   16   17 ar
  30   16   49 1
  31   17   50 1
  32   18   19 am
  33   18   51 1
  34   19   20 2
  35   19   21 am
  36   21   22 1
  37   21   52 1
  38   22   23 1
  39   22   26 2
  40   23   24 1
  41   23   31 1
  42   24   25 2
  43   25   26 1
  44   25   27 1
  45   26   53 1
  46   27   28 1
  47   27   29 1
  48   27   30 1
  49   28   54 1
  50   28   55 1
  51   28   56 1
  52   29   57 1
  53   29   58 1
  54   29   59 1
  55   30   60 1
  56   30   61 1
  57   30   62 1
  58   31   32 ar
  59   31   36 ar
  60   32   33 ar
  61   32   63 1
  62   33   34 ar
  63   33   64 1
  64   34   35 ar
  65   34   37 1
  66   35   36 ar
  67   35   65 1
  68   36   66 1
  69   37   67 1
  70   37   68 1
  71   37   69 1
  72   38   39 2
  73   38   40 2

#	End of record

