#	Name: ASD03930078
#	Creating user name:	WinNT
#	Creation time:	15. 06. 2019 20:47

#	Modifying user name:	WinNT
#	Modification time:	15. 06. 2019 20:47

#	Program:	/corina/corina34_cracker 3.40 0067  02.08.2006

@<TRIPOS>MOLECULE
ASD03930078
  33   35    0    0    0
SMALL
NO_CHARGES


@<TRIPOS>ATOM
   1 C1             2.1623     1.4171    -0.7262 C.ar    
   2 C2             2.2254     0.0613    -0.7312 C.ar    
   3 C3             1.3011    -0.6905     0.0173 C.ar    
   4 C4             0.3054    -0.0240     0.7753 C.ar    
   5 C5             0.2563     1.3796     0.7684 C.ar    
   6 C6             1.1797     2.0902     0.0213 C.ar    
   7 N7             1.3487    -2.0276     0.0231 N.ar    
   8 C8             0.4750    -2.7080     0.7291 C.ar    
   9 N9            -0.5739    -0.7396     1.4863 N.ar    
  10 C10            1.1332     3.5681     0.0100 C.2     
  11 O11            2.1637     4.2091     0.0787 O.2     
  12 N12           -0.0517     4.2043    -0.0767 N.am    
  13 C13           -0.1262     5.6671     0.0396 C.3     
  14 C14           -0.8672     6.2217    -1.1811 C.3     
  15 C15           -1.2928     3.4489    -0.2952 C.3     
  16 C16           -2.0147     4.0290    -1.5156 C.3     
  17 C17           -2.2272     5.5309    -1.3046 C.3     
  18 C18           -0.5062    -2.0506     1.4761 C.ar    
  19 H19            2.8786     1.9863    -1.3001 H       
  20 H20            2.9857    -0.4411    -1.3107 H       
  21 H21           -0.4970     1.9005     1.3408 H       
  22 H22            0.5150    -3.7873     0.7321 H       
  23 H23           -0.6667     5.9344     0.9477 H       
  24 H24            0.8809     6.0825     0.0756 H       
  25 H25           -1.0139     7.2951    -1.0610 H       
  26 H26           -0.2801     6.0326    -2.0799 H       
  27 H27           -1.0555     2.4004    -0.4752 H       
  28 H28           -1.9326     3.5354     0.5830 H       
  29 H29           -1.4126     3.8605    -2.4084 H       
  30 H30           -2.9826     3.5413    -1.6315 H       
  31 H31           -2.8108     5.6913    -0.3980 H       
  32 H32           -2.7625     5.9454    -2.1588 H       
  33 H33           -1.2165    -2.6269     2.0503 H       
@<TRIPOS>BOND
   1    1    2 ar
   2    1    6 ar
   3    1   19 1
   4    2    3 ar
   5    2   20 1
   6    3    4 ar
   7    3    7 ar
   8    4    5 ar
   9    4    9 ar
  10    5    6 ar
  11    5   21 1
  12    6   10 1
  13    7    8 ar
  14    8   18 ar
  15    8   22 1
  16    9   18 ar
  17   10   11 2
  18   10   12 am
  19   12   13 1
  20   12   15 1
  21   13   14 1
  22   13   23 1
  23   13   24 1
  24   14   17 1
  25   14   25 1
  26   14   26 1
  27   15   16 1
  28   15   27 1
  29   15   28 1
  30   16   17 1
  31   16   29 1
  32   16   30 1
  33   17   31 1
  34   17   32 1
  35   18   33 1

#	End of record

