#	Name: ASD01881082
#	Creating user name:	WinNT
#	Creation time:	15. 06. 2019 19:42

#	Modifying user name:	WinNT
#	Modification time:	15. 06. 2019 19:42

#	Program:	/corina/corina34_cracker 3.40 0067  02.08.2006

@<TRIPOS>MOLECULE
ASD01881082
  49   52    0    0    0
SMALL
NO_CHARGES


@<TRIPOS>ATOM
   1 C1            -0.0169     1.3950     0.0097 C.ar    
   2 C2             0.0021    -0.0041     0.0020 C.ar    
   3 C3             1.2091    -0.6926    -0.0132 C.ar    
   4 C4             2.4034     0.0238    -0.0207 C.ar    
   5 C5             2.3732     1.4390    -0.0128 C.ar    
   6 C6             1.1476     2.1093     0.0024 C.ar    
   7 C7             3.7067    -0.6442    -0.0361 C.2     
   8 C8             4.8268     0.0959    -0.0424 C.2     
   9 N9             4.8013     1.4614    -0.0349 N.am    
  10 C10            3.6492     2.1602    -0.0207 C.2     
  11 C11            6.0710     2.1921    -0.0427 C.3     
  12 C12            6.4998     2.4542    -1.4878 C.3     
  13 C13            7.8259     3.2173    -1.4959 C.3     
  14 O14            3.6680     3.3781    -0.0147 O.2     
  15 Cl15           1.1045     3.8448     0.0122 Cl      
  16 C16           -1.2751    -0.7576     0.0106 C.ar    
  17 C17           -2.4990    -0.0796     0.0264 C.ar    
  18 C18           -3.6624    -0.8247     0.0334 C.ar    
  19 C19           -3.5801    -2.2122     0.0247 C.ar    
  20 N20           -2.4064    -2.8233     0.0098 N.ar    
  21 C21           -1.2737    -2.1502    -0.0027 C.ar    
  22 O22           -4.7182    -2.9499     0.0319 O.3     
  23 C23           -4.5702    -4.3712     0.0224 C.3     
  24 C24           -5.9313    -5.0180     0.0324 C.ar    
  25 C25           -6.5773    -5.3125    -1.1583 C.ar    
  26 C26           -7.8283    -5.9081    -1.1007 C.ar    
  27 C27           -8.3855    -6.1863     0.1328 C.ar    
  28 N28           -7.7420    -5.8917     1.2457 N.ar    
  29 C29           -6.5489    -5.3305     1.2289 C.ar    
  30 H30           -0.9629     1.9160     0.0170 H       
  31 H31            1.2209    -1.7726    -0.0187 H       
  32 H32            3.7662    -1.7225    -0.0421 H       
  33 H33            5.7827    -0.4067    -0.0535 H       
  34 H34            5.9468     3.1420     0.4774 H       
  35 H35            6.8345     1.5992     0.4610 H       
  36 H36            6.6241     1.5043    -2.0078 H       
  37 H37            5.7364     3.0471    -1.9915 H       
  38 H38            7.7017     4.1671    -0.9758 H       
  39 H39            8.5894     2.6244    -0.9922 H       
  40 H40            8.1314     3.4040    -2.5254 H       
  41 H41           -2.5335     0.9999     0.0332 H       
  42 H42           -4.6248    -0.3348     0.0459 H       
  43 H43           -0.3348    -2.6838    -0.0147 H       
  44 H44           -4.0306    -4.6742    -0.8748 H       
  45 H45           -4.0126    -4.6844     0.9050 H       
  46 H46           -6.1174    -5.0832    -2.1082 H       
  47 H47           -8.3606    -6.1511    -2.0085 H       
  48 H48           -9.3594    -6.6500     0.1862 H       
  49 H49           -6.0525    -5.1037     2.1609 H       
@<TRIPOS>BOND
   1    1    2 ar
   2    1    6 ar
   3    1   30 1
   4    2    3 ar
   5    2   16 1
   6    3    4 ar
   7    3   31 1
   8    4    5 ar
   9    4    7 1
  10    5    6 ar
  11    5   10 1
  12    6   15 1
  13    7    8 2
  14    7   32 1
  15    8    9 1
  16    8   33 1
  17    9   10 am
  18    9   11 1
  19   10   14 2
  20   11   12 1
  21   11   34 1
  22   11   35 1
  23   12   13 1
  24   12   36 1
  25   12   37 1
  26   13   38 1
  27   13   39 1
  28   13   40 1
  29   16   17 ar
  30   16   21 ar
  31   17   18 ar
  32   17   41 1
  33   18   19 ar
  34   18   42 1
  35   19   20 ar
  36   19   22 1
  37   20   21 ar
  38   21   43 1
  39   22   23 1
  40   23   24 1
  41   23   44 1
  42   23   45 1
  43   24   25 ar
  44   24   29 ar
  45   25   26 ar
  46   25   46 1
  47   26   27 ar
  48   26   47 1
  49   27   28 ar
  50   27   48 1
  51   28   29 ar
  52   29   49 1

#	End of record

