#	Name: ASD08710093
#	Creating user name:	WinNT
#	Creation time:	15. 06. 2019 21:19

#	Modifying user name:	WinNT
#	Modification time:	15. 06. 2019 21:19

#	Program:	/corina/corina34_cracker 3.40 0067  02.08.2006

@<TRIPOS>MOLECULE
ASD08710093
  49   51    0    0    0
SMALL
NO_CHARGES


@<TRIPOS>ATOM
   1 N1            -0.2953     1.5284     0.4523 N.am    
   2 C2            -0.2253     0.0612     0.4032 C.3     
   3 C3             0.9383    -0.3436    -0.5104 C.3     
   4 N4             2.1346     0.4096    -0.1088 N.am    
   5 C5             2.0646     1.8767    -0.0597 C.3     
   6 C6             0.9011     2.2815     0.8539 C.3     
   7 S7             3.5364    -0.3808     0.2820 S.o2    
   8 O8             4.2735     0.4995     1.1192 O.2     
   9 O9             3.1607    -1.6939     0.6744 O.2     
  10 C10            4.4693    -0.5531    -1.2028 C.ar    
  11 C11            5.3683     0.4299    -1.5722 C.ar    
  12 C12            6.1002     0.2948    -2.7371 C.ar    
  13 C13            5.9334    -0.8235    -3.5324 C.ar    
  14 C14            5.0351    -1.8069    -3.1625 C.ar    
  15 C15            4.3064    -1.6739    -1.9954 C.ar    
  16 C16            6.7306    -0.9703    -4.8028 C.3     
  17 F17            7.9306    -1.6341    -4.5263 F       
  18 F18            5.9926    -1.7094    -5.7336 F       
  19 F19            7.0086     0.2963    -5.3279 F       
  20 C20           -1.4346     2.1719     0.1294 C.2     
  21 O21           -2.3814     1.5484    -0.3091 O.2     
  22 C22           -1.1426     4.2319     1.5088 C.ar    
  23 C23           -1.5328     3.6361     0.3086 C.ar    
  24 C24           -2.0183     4.4484    -0.7229 C.ar    
  25 C25           -2.0898     5.8132    -0.5046 C.ar    
  26 C26           -1.6832     6.3261     0.7138 C.ar    
  27 N27           -1.2295     5.5359     1.6683 N.ar    
  28 C28           -2.4516     3.8522    -2.0374 C.3     
  29 C29           -1.5354    -0.4970    -0.1560 C.3     
  30 H30           -0.0563    -0.3307     1.4062 H       
  31 H31            1.1278    -1.4122    -0.4096 H       
  32 H32            0.6891    -0.1097    -1.5454 H       
  33 H33            2.9980     2.2744     0.3388 H       
  34 H34            1.8957     2.2687    -1.0626 H       
  35 H35            0.7116     3.3502     0.7532 H       
  36 H36            1.1502     2.0477     1.8890 H       
  37 H37            5.4986     1.3036    -0.9509 H       
  38 H38            6.8020     1.0632    -3.0261 H       
  39 H39            4.9046    -2.6805    -3.7840 H       
  40 H40            3.6073    -2.4439    -1.7045 H       
  41 H41           -0.7702     3.6175     2.3152 H       
  42 H42           -2.4588     6.4709    -1.2777 H       
  43 H43           -1.7379     7.3907     0.8868 H       
  44 H44           -3.5253     3.6658    -2.0155 H       
  45 H45           -2.2197     4.5463    -2.8452 H       
  46 H46           -1.9231     2.9132    -2.2023 H       
  47 H47           -1.7099    -0.0868    -1.1508 H       
  48 H48           -1.4708    -1.5833    -0.2172 H       
  49 H49           -2.3590    -0.2184     0.5014 H       
@<TRIPOS>BOND
   1    1    2 1
   2    1    6 1
   3    1   20 am
   4    2    3 1
   5    2   29 1
   6    2   30 1
   7    3    4 1
   8    3   31 1
   9    3   32 1
  10    4    5 1
  11    4    7 am
  12    5    6 1
  13    5   33 1
  14    5   34 1
  15    6   35 1
  16    6   36 1
  17    7    8 2
  18    7    9 2
  19    7   10 1
  20   10   11 ar
  21   10   15 ar
  22   11   12 ar
  23   11   37 1
  24   12   13 ar
  25   12   38 1
  26   13   14 ar
  27   13   16 1
  28   14   15 ar
  29   14   39 1
  30   15   40 1
  31   16   17 1
  32   16   18 1
  33   16   19 1
  34   20   21 2
  35   20   23 1
  36   22   23 ar
  37   22   27 ar
  38   22   41 1
  39   23   24 ar
  40   24   25 ar
  41   24   28 1
  42   25   26 ar
  43   25   42 1
  44   26   27 ar
  45   26   43 1
  46   28   44 1
  47   28   45 1
  48   28   46 1
  49   29   47 1
  50   29   48 1
  51   29   49 1

#	End of record

