#	Name: ASD00170787
#	Creating user name:	WinNT
#	Creation time:	15. 06. 2019 18:32

#	Modifying user name:	WinNT
#	Modification time:	15. 06. 2019 18:32

#	Program:	/corina/corina34_cracker 3.40 0067  02.08.2006

@<TRIPOS>MOLECULE
ASD00170787
  63   67    0    0    0
SMALL
NO_CHARGES


@<TRIPOS>ATOM
   1 C1             0.0293     0.7206     0.9555 C.2     
   2 O2             0.1563     0.4863     2.1437 O.2     
   3 C3             0.9180     0.0636    -0.0267 C.ar    
   4 C4             1.9781    -0.7330     0.4102 C.ar    
   5 C5             2.8036    -1.3430    -0.5106 C.ar    
   6 C6             2.5830    -1.1665    -1.8666 C.ar    
   7 C7             1.5331    -0.3770    -2.3061 C.ar    
   8 C8             0.6969     0.2328    -1.3949 C.ar    
   9 Cl9            3.6268    -1.9373    -3.0199 Cl      
  10 C10           -0.7883     2.9918     0.2879 C.2     
  11 C11           -1.0071     1.6479     0.4992 C.2     
  12 C12           -2.3673     1.2520     0.2222 C.2     
  13 C13           -3.1363     2.2704    -0.1828 C.2     
  14 S14           -2.2141     3.7618    -0.2394 S.3     
  15 C15           -2.8696    -0.1608     0.3730 C.3     
  16 N16           -3.2148    -0.4103     1.7789 N.3     
  17 C17           -3.8017    -1.7469     1.9479 C.3     
  18 C18           -4.0731    -1.9980     3.4331 C.3     
  19 N19           -4.9783    -0.9598     3.9453 N.3     
  20 C20           -4.3914     0.3768     3.7763 C.3     
  21 C21           -4.1201     0.6278     2.2911 C.3     
  22 C22           -5.3066    -1.1970     5.2820 C.ar    
  23 C23           -6.1551    -0.3271     5.9555 C.ar    
  24 C24           -6.4779    -0.5649     7.2769 C.ar    
  25 C25           -5.9572    -1.6672     7.9301 C.ar    
  26 C26           -5.1125    -2.5349     7.2628 C.ar    
  27 C27           -4.7901    -2.3062     5.9393 C.ar    
  28 C28           -7.3982     0.3782     8.0082 C.3     
  29 F29           -8.7218    -0.0470     7.8518 F       
  30 F30           -7.0696     0.3894     9.3681 F       
  31 F31           -7.2574     1.6675     7.4838 F       
  32 C32           -4.5668     2.1539    -0.5349 C.ar    
  33 C33           -5.5118     2.9677     0.0925 C.ar    
  34 C34           -6.8455     2.8538    -0.2409 C.ar    
  35 C35           -7.2474     1.9356    -1.1948 C.ar    
  36 C36           -6.3161     1.1257    -1.8202 C.ar    
  37 C37           -4.9784     1.2336    -1.5007 C.ar    
  38 N38            0.4187     3.6281     0.4823 N.pl3   
  39 H39            2.1515    -0.8708     1.4673 H       
  40 H40            3.6239    -1.9595    -0.1738 H       
  41 H41            1.3664    -0.2424    -3.3647 H       
  42 H42           -0.1245     0.8439    -1.7387 H       
  43 H43           -3.7540    -0.3003    -0.2486 H       
  44 H44           -2.0922    -0.8581     0.0605 H       
  45 H45           -4.7375    -1.8061     1.3922 H       
  46 H46           -3.1075    -2.4990     1.5729 H       
  47 H47           -4.5351    -2.9773     3.5579 H       
  48 H48           -3.1336    -1.9658     3.9849 H       
  49 H49           -5.0856     1.1289     4.1513 H       
  50 H50           -3.4556     0.4360     4.3320 H       
  51 H51           -3.6580     1.6071     2.1663 H       
  52 H52           -5.0595     0.5957     1.7393 H       
  53 H53           -6.5614     0.5342     5.4463 H       
  54 H54           -6.2108    -1.8504     8.9638 H       
  55 H55           -4.7077    -3.3948     7.7758 H       
  56 H56           -4.1337    -2.9868     5.4174 H       
  57 H57           -5.1995     3.6845     0.8375 H       
  58 H58           -7.5777     3.4825     0.2440 H       
  59 H59           -8.2929     1.8505    -1.4521 H       
  60 H60           -6.6365     0.4106    -2.5634 H       
  61 H61           -4.2518     0.6045    -1.9932 H       
  62 H62            1.1664     3.1433     0.8655 H       
  63 H63            0.5205     4.5608     0.2360 H       
@<TRIPOS>BOND
   1    1    2 2
   2    1    3 1
   3    1   11 1
   4    3    4 ar
   5    3    8 ar
   6    4    5 ar
   7    4   39 1
   8    5    6 ar
   9    5   40 1
  10    6    7 ar
  11    6    9 1
  12    7    8 ar
  13    7   41 1
  14    8   42 1
  15   10   11 2
  16   10   14 1
  17   10   38 1
  18   11   12 1
  19   12   13 2
  20   12   15 1
  21   13   14 1
  22   13   32 1
  23   15   16 1
  24   15   43 1
  25   15   44 1
  26   16   17 1
  27   16   21 1
  28   17   18 1
  29   17   45 1
  30   17   46 1
  31   18   19 1
  32   18   47 1
  33   18   48 1
  34   19   20 1
  35   19   22 1
  36   20   21 1
  37   20   49 1
  38   20   50 1
  39   21   51 1
  40   21   52 1
  41   22   23 ar
  42   22   27 ar
  43   23   24 ar
  44   23   53 1
  45   24   25 ar
  46   24   28 1
  47   25   26 ar
  48   25   54 1
  49   26   27 ar
  50   26   55 1
  51   27   56 1
  52   28   29 1
  53   28   30 1
  54   28   31 1
  55   32   33 ar
  56   32   37 ar
  57   33   34 ar
  58   33   57 1
  59   34   35 ar
  60   34   58 1
  61   35   36 ar
  62   35   59 1
  63   36   37 ar
  64   36   60 1
  65   37   61 1
  66   38   62 1
  67   38   63 1

#	End of record

