#	Name: ASD01410253
#	Creating user name:	WinNT
#	Creation time:	15. 06. 2019 19:17

#	Modifying user name:	WinNT
#	Modification time:	15. 06. 2019 19:17

#	Program:	/corina/corina34_cracker 3.40 0067  02.08.2006

@<TRIPOS>MOLECULE
ASD01410253
  27   28    0    0    0
SMALL
NO_CHARGES


@<TRIPOS>ATOM
   1 C1            -0.0165     1.3757     0.0329 C.ar    
   2 C2             0.0019    -0.0056     0.0281 C.ar    
   3 C3            -1.1849    -0.7223     0.0312 C.ar    
   4 C4            -2.3956    -0.0626     0.0388 C.ar    
   5 C5            -2.4280     1.3344     0.0437 C.ar    
   6 C6            -1.2267     2.0553     0.0468 C.ar    
   7 O7            -1.2462     3.4121     0.0516 O.3     
   8 Cl8            1.4759     2.2626     0.0289 Cl      
   9 C9            -3.7200     2.0462     0.0513 C.2     
  10 N10           -4.8735     1.3491     0.0535 N.am    
  11 O11           -3.7444     3.2620     0.0556 O.2     
  12 C12           -7.2165     1.5469    -0.4966 C.ar    
  13 C13           -6.0956     2.0193     0.1734 C.ar    
  14 C14           -6.1900     3.1579     0.9630 C.ar    
  15 C15           -7.3986     3.8176     1.0800 C.ar    
  16 C16           -8.5149     3.3435     0.4108 C.ar    
  17 C17           -8.4227     2.2093    -0.3758 C.ar    
  18 Cl18          -1.1464    -2.4579     0.0250 Cl      
  19 Cl19         -10.0322     4.1737     0.5598 Cl      
  20 Cl20          -7.5181     5.2410     2.0667 Cl      
  21 H21            0.9459    -0.5300     0.0214 H       
  22 H22           -3.3177    -0.6249     0.0405 H       
  23 H23           -1.2522     3.8023     0.9364 H       
  24 H24           -4.8562     0.3827    -0.0282 H       
  25 H25           -7.1443     0.6642    -1.1148 H       
  26 H26           -5.3198     3.5271     1.4854 H       
  27 H27           -9.2945     1.8416    -0.8966 H       
@<TRIPOS>BOND
   1    1    2 ar
   2    1    8 1
   3    1    6 ar
   4    2    3 ar
   5    2   21 1
   6    3    4 ar
   7    3   18 1
   8    4    5 ar
   9    4   22 1
  10    5    6 ar
  11    5    9 1
  12    6    7 1
  13    7   23 1
  14    9   10 am
  15    9   11 2
  16   10   13 1
  17   10   24 1
  18   12   13 ar
  19   12   17 ar
  20   12   25 1
  21   13   14 ar
  22   14   15 ar
  23   14   26 1
  24   15   16 ar
  25   15   20 1
  26   16   17 ar
  27   16   19 1
  28   17   27 1

#	End of record

