#	Name: ASD01913315
#	Creating user name:	WinNT
#	Creation time:	15. 06. 2019 20:01

#	Modifying user name:	WinNT
#	Modification time:	15. 06. 2019 20:01

#	Program:	/corina/corina34_cracker 3.40 0067  02.08.2006

@<TRIPOS>MOLECULE
ASD01913315
  35   37    0    0    0
SMALL
NO_CHARGES


@<TRIPOS>ATOM
   1 C1            -0.0169     1.3928     0.0097 C.ar    
   2 C2             0.0021    -0.0041     0.0020 C.ar    
   3 C3             1.2387    -0.6635    -0.0134 C.ar    
   4 C4             2.3900     0.1030    -0.0203 C.ar    
   5 C5             2.2856     1.4827    -0.0119 C.ar    
   6 N6             1.1081     2.0773     0.0026 N.ar    
   7 C7             3.5383     2.3205    -0.0189 C.3     
   8 C8            -1.2208    -0.7492     0.0102 C.1     
   9 C9            -2.2233    -1.3601     0.0169 C.1     
  10 C10           -3.4461    -2.1052     0.0251 C.ar    
  11 C11           -3.4170    -3.5023     0.0173 C.ar    
  12 C12           -4.5988    -4.2132     0.0253 C.ar    
  13 C13           -5.8113    -3.5464     0.0404 C.ar    
  14 C14           -5.8479    -2.1632     0.0477 C.ar    
  15 C15           -4.6742    -1.4389     0.0467 C.ar    
  16 N16            3.8647     2.6994    -1.3959 N.am    
  17 C17            3.3936     3.9110    -2.0842 C.3     
  18 C18            4.0290     3.8082    -3.4842 C.3     
  19 O19            4.7835     2.5626    -3.4385 O.3     
  20 C20            4.6457     2.0017    -2.2319 C.2     
  21 O21            5.1738     0.9513    -1.9247 O.2     
  22 H22           -0.9619     1.9156     0.0170 H       
  23 H23            1.2913    -1.7422    -0.0193 H       
  24 H24            3.3606    -0.3705    -0.0318 H       
  25 H25            3.3779     3.2190     0.5769 H       
  26 H26            4.3620     1.7459     0.4048 H       
  27 H27           -2.4715    -4.0240     0.0048 H       
  28 H28           -4.5779    -5.2930     0.0193 H       
  29 H29           -6.7335    -4.1084     0.0462 H       
  30 H30           -6.7979    -1.6495     0.0592 H       
  31 H31           -4.7042    -0.3593     0.0528 H       
  32 H32            2.3060     3.9120    -2.1564 H       
  33 H33            3.7449     4.8051    -1.5690 H       
  34 H34            3.2565     3.7591    -4.2517 H       
  35 H35            4.6950     4.6520    -3.6645 H       
@<TRIPOS>BOND
   1    1    2 ar
   2    1    6 ar
   3    1   22 1
   4    2    3 ar
   5    2    8 1
   6    3    4 ar
   7    3   23 1
   8    4    5 ar
   9    4   24 1
  10    5    6 ar
  11    5    7 1
  12    7   16 1
  13    7   25 1
  14    7   26 1
  15    8    9 3
  16    9   10 1
  17   10   11 ar
  18   10   15 ar
  19   11   12 ar
  20   11   27 1
  21   12   13 ar
  22   12   28 1
  23   13   14 ar
  24   13   29 1
  25   14   15 ar
  26   14   30 1
  27   15   31 1
  28   16   17 1
  29   16   20 am
  30   17   18 1
  31   17   32 1
  32   17   33 1
  33   18   19 1
  34   18   34 1
  35   18   35 1
  36   19   20 1
  37   20   21 2

#	End of record

