#	Name: ASD01708021
#	Creating user name:	WinNT
#	Creation time:	15. 06. 2019 19:22

#	Modifying user name:	WinNT
#	Modification time:	15. 06. 2019 19:22

#	Program:	/corina/corina34_cracker 3.40 0067  02.08.2006

@<TRIPOS>MOLECULE
ASD01708021
  78   80    0    0    0
SMALL
NO_CHARGES


@<TRIPOS>ATOM
   1 C1            -1.1415    -0.5851    -0.4070 C.2     
   2 C2            -0.0128    -0.0215     0.0598 C.2     
   3 C3            -1.0968    -1.9155    -1.0212 C.2     
   4 C4            -2.2265    -2.5163    -1.3918 C.2     
   5 C5             2.5175    -0.3275    -0.0081 C.2     
   6 C6             1.2328    -0.8075     0.1210 C.2     
   7 O7             3.3648    -1.3569     0.1077 O.3     
   8 C8             2.6740    -2.4976     0.3088 C.2     
   9 C9             1.3441    -2.2052     0.3246 C.2     
  10 C10            3.2586    -3.8323     0.4822 C.2     
  11 N11            4.5952    -3.9752     0.5794 N.am    
  12 O12            2.5365    -4.8102     0.5384 O.2     
  13 C13            5.2203    -5.3065     0.6476 C.3     
  14 C14            5.4864    -2.8109     0.6154 C.3     
  15 C15            6.6677    -3.0465    -0.2931 C.ar    
  16 C16            6.9406    -4.2816    -0.8403 C.ar    
  17 C17            6.0793    -5.4859    -0.6031 C.3     
  18 C18            7.4935    -1.9634    -0.5702 C.ar    
  19 C19            8.5949    -2.1076    -1.3854 C.ar    
  20 C20            8.8840    -3.3584    -1.9382 C.ar    
  21 C21            8.0504    -4.4405    -1.6596 C.ar    
  22 Cl22           8.4025    -5.9977    -2.3415 Cl      
  23 Cl23           9.6160    -0.7452    -1.7241 Cl      
  24 C24           10.0632    -3.5323    -2.8104 C.2     
  25 N25            9.9500    -3.3500    -4.1409 N.am    
  26 O26           11.1359    -3.8398    -2.3281 O.2     
  27 C27           11.1196    -3.5225    -5.0060 C.3     
  28 C28           11.9102    -2.2401    -5.0434 C.2     
  29 O29           13.0311    -2.1639    -5.7780 O.3     
  30 O30           11.5352    -1.2805    -4.4122 O.2     
  31 C31           10.6593    -3.8793    -6.4209 C.3     
  32 N32            9.7895    -5.0619    -6.3692 N.3     
  33 H33           -2.0814    -0.0593    -0.3253 H       
  34 H34           -0.0191     1.0069     0.3897 H       
  35 H35           -0.1480    -2.4085    -1.1731 H       
  36 H36           -3.1753    -2.0233    -1.2398 H       
  37 H37           -2.1935    -3.4964    -1.8442 H       
  38 H38            2.7936     0.7026    -0.1781 H       
  39 H39            0.5321    -2.9031     0.4653 H       
  40 H40            5.8458    -5.3752     1.5376 H       
  41 H41            4.4483    -6.0754     0.6782 H       
  42 H42            4.9425    -1.9274     0.2812 H       
  43 H43            5.8385    -2.6550     1.6351 H       
  44 H44            6.7154    -6.3613    -0.4717 H       
  45 H45            5.4328    -5.6400    -1.4671 H       
  46 H46            7.2690    -0.9977    -0.1420 H       
  47 H47            9.0940    -3.1046    -4.5258 H       
  48 H48           11.7459    -4.3242    -4.6147 H       
  49 H49           13.5043    -1.3206    -5.7707 H       
  50 H50           10.1075    -3.0407    -6.8457 H       
  51 H51           11.5286    -4.0944    -7.0423 H       
  52 H52            9.4720    -5.3179    -7.2921 H       
  53 H53           10.2569    -5.8352    -5.9202 H       
  54 C54           22.0208    11.6892     7.6517 C.2     
  55 N55           22.0392    10.3303     7.6442 N.pl3   
  56 N56           23.1457    12.3593     7.6445 N.2     
  57 C57           20.8531     9.4548     7.6508 C.3     
  58 C58           23.2453     9.4898     7.6217 C.3     
  59 C59           22.7793     8.0188     7.6472 C.3     
  60 C60           21.3515     8.1162     8.2502 C.3     
  61 C61           20.4795     6.9476     7.7865 C.3     
  62 C62           19.1255     7.0087     8.4962 C.3     
  63 O63           23.6316     7.2329     8.4826 O.3     
  64 C64           23.1273    13.7141     7.6520 C.1     
  65 N65           23.1119    14.8500     7.6582 N.1     
  66 H66           21.0783    12.2165     7.6590 H       
  67 H67           20.0696     9.8823     8.2766 H       
  68 H68           20.4879     9.3031     6.6351 H       
  69 H69           23.8146     9.6826     6.7125 H       
  70 H70           23.8595     9.6993     8.4975 H       
  71 H71           22.7418     7.6087     6.6380 H       
  72 H72           21.3895     8.1655     9.3384 H       
  73 H73           20.3283     7.0123     6.7090 H       
  74 H74           20.9743     6.0069     8.0281 H       
  75 H75           19.2768     6.9439     9.5737 H       
  76 H76           18.6307     7.9494     8.2547 H       
  77 H77           18.5043     6.1761     8.1659 H       
  78 H78           24.5525     7.2042     8.1890 H       
@<TRIPOS>BOND
   1    1    2 2
   2    1    3 1
   3    1   33 1
   4    2    6 1
   5    2   34 1
   6    3    4 2
   7    3   35 1
   8    4   36 1
   9    4   37 1
  10    5    6 2
  11    5    7 1
  12    5   38 1
  13    6    9 1
  14    7    8 1
  15    8    9 2
  16    8   10 1
  17    9   39 1
  18   10   11 am
  19   10   12 2
  20   11   13 1
  21   11   14 1
  22   13   17 1
  23   13   40 1
  24   13   41 1
  25   14   15 1
  26   14   42 1
  27   14   43 1
  28   15   16 ar
  29   15   18 ar
  30   16   17 1
  31   16   21 ar
  32   17   44 1
  33   17   45 1
  34   18   19 ar
  35   18   46 1
  36   19   20 ar
  37   19   23 1
  38   20   21 ar
  39   20   24 1
  40   21   22 1
  41   24   25 am
  42   24   26 2
  43   25   27 1
  44   25   47 1
  45   27   28 1
  46   27   31 1
  47   27   48 1
  48   28   29 1
  49   28   30 2
  50   29   49 1
  51   31   32 1
  52   31   50 1
  53   31   51 1
  54   32   52 1
  55   32   53 1
  56   54   55 1
  57   54   56 2
  58   54   66 1
  59   55   57 1
  60   55   58 1
  61   56   64 1
  62   57   60 1
  63   57   67 1
  64   57   68 1
  65   58   59 1
  66   58   69 1
  67   58   70 1
  68   59   60 1
  69   59   63 1
  70   59   71 1
  71   60   61 1
  72   60   72 1
  73   61   62 1
  74   61   73 1
  75   61   74 1
  76   62   75 1
  77   62   76 1
  78   62   77 1
  79   63   78 1
  80   64   65 3

#	End of record

