#	Name: ASD00111093
#	Creating user name:	WinNT
#	Creation time:	15. 06. 2019 18:30

#	Modifying user name:	WinNT
#	Modification time:	15. 06. 2019 18:30

#	Program:	/corina/corina34_cracker 3.40 0067  02.08.2006

@<TRIPOS>MOLECULE
ASD00111093
  39   40    0    0    0
SMALL
NO_CHARGES


@<TRIPOS>ATOM
   1 N1             1.1686     1.6578     0.3235 N.am    
   2 C2             0.6669     0.3210     0.0207 C.3     
   3 C3             0.6302    -0.5204     1.3012 C.3     
   4 C4             2.0212    -1.0481     1.5738 C.ar    
   5 C5             3.0169    -0.1958     1.9847 C.ar    
   6 C6             2.7317     1.2781     2.1684 C.3     
   7 C7             2.5282     1.9141     0.7888 C.3     
   8 C8             4.2885    -0.6783     2.2349 C.ar    
   9 C9             4.5564    -2.0299     2.0690 C.ar    
  10 C10            3.5493    -2.8885     1.6535 C.ar    
  11 C11            2.2815    -2.3972     1.4060 C.ar    
  12 O12            5.8036    -2.5114     2.3127 O.3     
  13 C13            6.0069    -3.9129     2.1211 C.3     
  14 C14            0.1720     0.3491     2.4739 C.3     
  15 C15           -1.3526     0.2896     2.5876 C.3     
  16 C16            0.3382     2.7068     0.1603 C.2     
  17 O17           -0.7961     2.5273    -0.2296 O.2     
  18 C18            0.8191     4.1027     0.4623 C.3     
  19 F19           -0.2135     5.0146     0.2188 F       
  20 F20            1.2050     4.1827     1.8047 F       
  21 F21            1.9124     4.4066    -0.3560 F       
  22 H22           -0.3389     0.3963    -0.3926 H       
  23 H23            1.3225    -0.1559    -0.7078 H       
  24 H24           -0.0585    -1.3551     1.1708 H       
  25 H25            1.8288     1.4042     2.7659 H       
  26 H26            3.5744     1.7540     2.6699 H       
  27 H27            3.2397     1.4850     0.0833 H       
  28 H28            2.6911     2.9896     0.8578 H       
  29 H29            5.0699    -0.0061     2.5576 H       
  30 H30            3.7559    -3.9405     1.5231 H       
  31 H31            1.4961    -3.0640     1.0822 H       
  32 H32            5.3434    -4.4700     2.7825 H       
  33 H33            5.7897    -4.1732     1.0852 H       
  34 H34            7.0426    -4.1643     2.3495 H       
  35 H35            0.6199    -0.0200     3.3965 H       
  36 H36            0.4839     1.3798     2.3055 H       
  37 H37           -1.8005     0.6587     1.6650 H       
  38 H38           -1.6645    -0.7411     2.7560 H       
  39 H39           -1.6790     0.9091     3.4230 H       
@<TRIPOS>BOND
   1    1    2 1
   2    1    7 1
   3    1   16 am
   4    2    3 1
   5    2   22 1
   6    2   23 1
   7    3    4 1
   8    3   14 1
   9    3   24 1
  10    4    5 ar
  11    4   11 ar
  12    5    6 1
  13    5    8 ar
  14    6    7 1
  15    6   25 1
  16    6   26 1
  17    7   27 1
  18    7   28 1
  19    8    9 ar
  20    8   29 1
  21    9   10 ar
  22    9   12 1
  23   10   11 ar
  24   10   30 1
  25   11   31 1
  26   12   13 1
  27   13   32 1
  28   13   33 1
  29   13   34 1
  30   14   15 1
  31   14   35 1
  32   14   36 1
  33   15   37 1
  34   15   38 1
  35   15   39 1
  36   16   17 2
  37   16   18 1
  38   18   19 1
  39   18   20 1
  40   18   21 1

#	End of record

