#	Name: ASD01208993
#	Creating user name:	WinNT
#	Creation time:	15. 06. 2019 19:10

#	Modifying user name:	WinNT
#	Modification time:	15. 06. 2019 19:10

#	Program:	/corina/corina34_cracker 3.40 0067  02.08.2006

@<TRIPOS>MOLECULE
ASD01208993
  56   60    0    0    0
SMALL
NO_CHARGES


@<TRIPOS>ATOM
   1 C1             0.8832     1.4105    -2.1022 C.3     
   2 C2             0.3304    -0.0126    -2.2945 C.3     
   3 C3            -0.5833    -0.3824    -1.1243 C.3     
   4 C4            -0.9960    -1.8509    -1.2439 C.3     
   5 C5            -1.7529    -2.2622    -0.0074 C.2     
   6 N6            -1.1222    -2.3143     1.1826 N.am    
   7 C7            -1.7889    -2.8058     2.3039 C.ar    
   8 N8            -1.8519    -2.0233    -2.4203 N.pl3   
   9 C9            -1.5800    -2.8372    -3.4889 C.ar    
  10 C10           -2.6578    -2.7023    -4.3857 C.ar    
  11 C11           -3.5836    -1.7543    -3.7743 C.2     
  12 N12           -3.0804    -1.3884    -2.6301 N.2     
  13 O13           -2.9294    -2.5464    -0.0830 O.2     
  14 C14           -0.5264    -3.6893    -3.8091 C.ar    
  15 C15           -0.5471    -4.3842    -4.9853 C.ar    
  16 C16           -1.6092    -4.2526    -5.8711 C.ar    
  17 C17           -2.6563    -3.4255    -5.5833 C.ar    
  18 C18           -5.4237    -3.9482    -5.8253 C.3     
  19 C19           -6.7437    -4.0645    -6.5902 C.3     
  20 C20           -5.9374    -5.3222    -6.2600 C.3     
  21 C21           -0.4752     0.0016    -3.6100 C.3     
  22 C22            0.1238     1.1853    -4.4094 C.3     
  23 C23            0.3943     2.2398    -3.3076 C.3     
  24 C24           -2.9499    -3.5582     2.1512 C.ar    
  25 N25           -3.5783    -4.0218     3.2152 N.ar    
  26 C26           -3.1063    -3.7721     4.4247 C.ar    
  27 C27           -1.9533    -3.0250     4.5800 C.ar    
  28 N28           -1.3156    -2.5621     3.5187 N.ar    
  29 S29           -3.9972    -3.2673    -6.7154 S.o2    
  30 O30           -4.1429    -1.8649    -6.8922 O.2     
  31 O31           -3.6393    -4.1095    -7.8024 O.2     
  32 H32            0.5006     1.8376    -1.1753 H       
  33 H33            1.9728     1.3882    -2.0816 H       
  34 H34            1.1517    -0.7257    -2.3664 H       
  35 H35           -0.0511    -0.2299    -0.1854 H       
  36 H36           -1.4725     0.2477    -1.1445 H       
  37 H37           -0.1058    -2.4711    -1.3482 H       
  38 H38           -0.2044    -2.0098     1.2588 H       
  39 H39           -4.5209    -1.4195    -4.1936 H       
  40 H40            0.3055    -3.8004    -3.1294 H       
  41 H41            0.2725    -5.0437    -5.2296 H       
  42 H42           -1.6068    -4.8106    -6.7957 H       
  43 H43           -5.4766    -3.7032    -4.7645 H       
  44 H44           -7.6650    -3.8965    -6.0324 H       
  45 H45           -6.7549    -3.7319    -7.6281 H       
  46 H46           -5.4182    -5.8171    -7.0808 H       
  47 H47           -6.3282    -5.9816    -5.4851 H       
  48 H48           -0.3367    -0.9338    -4.1522 H       
  49 H49           -1.5324     0.1737    -3.4081 H       
  50 H50            1.0523     0.8907    -4.8985 H       
  51 H51           -0.5945     1.5627    -5.1372 H       
  52 H52           -0.5225     2.7734    -3.0569 H       
  53 H53            1.1673     2.9378    -3.6291 H       
  54 H54           -3.3361    -3.7622     1.1634 H       
  55 H55           -3.6228    -4.1524     5.2936 H       
  56 H56           -1.5707    -2.8231     5.5696 H       
@<TRIPOS>BOND
   1    1    2 1
   2    1   23 1
   3    1   32 1
   4    1   33 1
   5    2    3 1
   6    2   21 1
   7    2   34 1
   8    3    4 1
   9    3   35 1
  10    3   36 1
  11    4    5 1
  12    4    8 1
  13    4   37 1
  14    5    6 am
  15    5   13 2
  16    6    7 1
  17    6   38 1
  18    7   24 ar
  19    7   28 ar
  20    8    9 1
  21    8   12 1
  22    9   10 ar
  23    9   14 ar
  24   10   11 1
  25   10   17 ar
  26   11   12 2
  27   11   39 1
  28   14   15 ar
  29   14   40 1
  30   15   16 ar
  31   15   41 1
  32   16   17 ar
  33   16   42 1
  34   17   29 1
  35   18   19 1
  36   18   29 1
  37   18   20 1
  38   18   43 1
  39   19   20 1
  40   19   44 1
  41   19   45 1
  42   20   46 1
  43   20   47 1
  44   21   22 1
  45   21   48 1
  46   21   49 1
  47   22   23 1
  48   22   50 1
  49   22   51 1
  50   23   52 1
  51   23   53 1
  52   24   25 ar
  53   24   54 1
  54   25   26 ar
  55   26   27 ar
  56   26   55 1
  57   27   28 ar
  58   27   56 1
  59   29   30 2
  60   29   31 2

#	End of record

