#	Name: ASD01901325
#	Creating user name:	WinNT
#	Creation time:	15. 06. 2019 19:53

#	Modifying user name:	WinNT
#	Modification time:	15. 06. 2019 19:53

#	Program:	/corina/corina34_cracker 3.40 0067  02.08.2006

@<TRIPOS>MOLECULE
ASD01901325
  42   45    0    0    0
SMALL
NO_CHARGES


@<TRIPOS>ATOM
   1 C1            -0.0167     1.3805     0.0096 C.ar    
   2 C2             0.0021    -0.0041     0.0020 C.ar    
   3 C3             1.2099    -0.6808    -0.0132 C.ar    
   4 C4             2.4038     0.0223    -0.0203 C.ar    
   5 C5             2.3969     1.4027    -0.0128 C.ar    
   6 C6             1.1871     2.0918     0.0020 C.ar    
   7 C7             1.1754     3.5757     0.0095 C.2     
   8 N8             0.8624     5.5937     1.1946 N.2     
   9 C9             0.8715     4.2832     1.1930 C.2     
  10 C10            1.4642     4.2769    -1.1277 C.2     
  11 C11            1.1388     6.2900     0.0819 C.2     
  12 N12            1.1910     7.5935    -0.1536 N.2     
  13 N13            1.4444     5.6399    -1.0859 N.pl3   
  14 C14            1.6824     6.5995    -2.0327 C.2     
  15 C15            1.5196     7.7978    -1.4326 C.2     
  16 C16            1.6809     9.1418    -2.0949 C.3     
  17 O17            2.0357     8.9572    -3.4668 O.3     
  18 C18            2.2200    10.0783    -4.2126 C.ar    
  19 C19            2.0682    11.3302    -3.6345 C.ar    
  20 C20            2.5659     9.9727    -5.5520 C.ar    
  21 C21            2.7527    11.1137    -6.3080 C.ar    
  22 C22            2.5956    12.3602    -5.7307 C.ar    
  23 C23            2.2560    12.4682    -4.3948 C.ar    
  24 F24            1.2245    -2.0317    -0.0205 F       
  25 O25           -1.2012     2.0459     0.0189 O.3     
  26 C26           -2.3904     1.2535     0.0202 C.3     
  27 H27           -0.9260    -0.5564     0.0083 H       
  28 H28            3.3427    -0.5113    -0.0314 H       
  29 H29            3.3292     1.9477    -0.0181 H       
  30 H30            0.6453     3.7424     2.1001 H       
  31 H31            1.7046     3.7596    -2.0448 H       
  32 H32            1.9502     6.4299    -3.0651 H       
  33 H33            0.7421     9.6922    -2.0334 H       
  34 H34            2.4657     9.7043    -1.5892 H       
  35 H35            1.8029    11.4150    -2.5910 H       
  36 H36            2.6895     8.9992    -6.0031 H       
  37 H37            3.0220    11.0320    -7.3507 H       
  38 H38            2.7424    13.2511    -6.3233 H       
  39 H39            2.1379    13.4430    -3.9452 H       
  40 H40           -3.2626     1.9073     0.0278 H       
  41 H41           -2.4121     0.6293    -0.8731 H       
  42 H42           -2.4037     0.6196     0.9068 H       
@<TRIPOS>BOND
   1    1    2 ar
   2    1    6 ar
   3    1   25 1
   4    2    3 ar
   5    2   27 1
   6    3    4 ar
   7    3   24 1
   8    4    5 ar
   9    4   28 1
  10    5    6 ar
  11    5   29 1
  12    6    7 1
  13    7   10 2
  14    7    9 1
  15    8    9 2
  16    8   11 1
  17    9   30 1
  18   10   13 1
  19   10   31 1
  20   11   13 1
  21   11   12 2
  22   12   15 1
  23   13   14 1
  24   14   15 2
  25   14   32 1
  26   15   16 1
  27   16   17 1
  28   16   33 1
  29   16   34 1
  30   17   18 1
  31   18   20 ar
  32   18   19 ar
  33   19   23 ar
  34   19   35 1
  35   20   21 ar
  36   20   36 1
  37   21   22 ar
  38   21   37 1
  39   22   23 ar
  40   22   38 1
  41   23   39 1
  42   25   26 1
  43   26   40 1
  44   26   41 1
  45   26   42 1

#	End of record

