#	Name: ASD04590167
#	Creating user name:	WinNT
#	Creation time:	15. 06. 2019 20:50

#	Modifying user name:	WinNT
#	Modification time:	15. 06. 2019 20:50

#	Program:	/corina/corina34_cracker 3.40 0067  02.08.2006

@<TRIPOS>MOLECULE
ASD04590167
  57   59    0    0    0
SMALL
NO_CHARGES


@<TRIPOS>ATOM
   1 N1            -0.0153     1.2802     0.0091 N.pl3   
   2 N2             0.0021    -0.0041     0.0020 N.2     
   3 C3             1.2455    -0.4440    -0.0122 C.2     
   4 C4             2.0903     0.6961    -0.0142 C.2     
   5 C5             1.2523     1.7667    -0.0004 C.2     
   6 C6             1.6764    -1.8547    -0.0232 C.2     
   7 N7             0.7570    -2.8402    -0.0194 N.am    
   8 O8             2.8611    -2.1285    -0.0356 O.2     
   9 N9             3.4928     0.7146    -0.0270 N.am    
  10 C10            4.1513     1.8906    -0.0271 C.2     
  11 C11            1.1850    -4.2413    -0.0303 C.3     
  12 O12            3.5296     2.9353    -0.0159 O.2     
  13 C13            0.0890    -5.1140     0.5855 C.3     
  14 C14            0.5541    -6.5735     0.6041 C.3     
  15 N15            0.9418    -6.9636    -0.7583 N.am    
  16 C16            1.9229    -6.1392    -1.4771 C.3     
  17 C17            1.4424    -4.6846    -1.4723 C.3     
  18 C18            5.6293     1.9102    -0.0407 C.ar    
  19 C19            6.3143     3.1264    -0.0407 C.ar    
  20 C20            7.6937     3.1376    -0.0535 C.ar    
  21 C21            8.3981     1.9468    -0.0667 C.ar    
  22 C22            7.7253     0.7378    -0.0671 C.ar    
  23 C23            6.3461     0.7124    -0.0477 C.ar    
  24 C24            0.4080    -8.0572    -1.3376 C.2     
  25 C25           -1.3607    -9.4057    -3.1989 C.3     
  26 C26            0.1569    -9.5926    -3.1475 C.3     
  27 O27            0.7724    -8.4030    -2.5868 O.3     
  28 C28            0.4926   -10.8015    -2.2717 C.3     
  29 O29           -0.4022    -8.7310    -0.7326 O.2     
  30 C30            0.6905    -9.8242    -4.5626 C.3     
  31 H31           -0.8184     1.8242     0.0160 H       
  32 H32            1.5405     2.8076     0.0024 H       
  33 H33           -0.1880    -2.6218    -0.0095 H       
  34 H34            3.9889    -0.1189    -0.0359 H       
  35 H35            2.1014    -4.3455     0.5505 H       
  36 H36           -0.1102    -4.7826     1.6046 H       
  37 H37           -0.8205    -5.0295    -0.0093 H       
  38 H38            1.4101    -6.6757     1.2710 H       
  39 H39           -0.2592    -7.2118     0.9495 H       
  40 H40            2.8905    -6.2060    -0.9798 H       
  41 H41            2.0128    -6.4909    -2.5048 H       
  42 H42            0.5202    -4.6041    -2.0478 H       
  43 H43            2.2065    -4.0476    -1.9178 H       
  44 H44            5.7656     4.0566    -0.0312 H       
  45 H45            8.2249     4.0779    -0.0536 H       
  46 H46            9.4780     1.9611    -0.0770 H       
  47 H47            8.2811    -0.1882    -0.0778 H       
  48 H48            5.8221    -0.2319    -0.0477 H       
  49 H49           -1.5998    -8.5445    -3.8227 H       
  50 H50           -1.8227   -10.2988    -3.6198 H       
  51 H51           -1.7408    -9.2408    -2.1907 H       
  52 H52            0.0306   -11.6945    -2.6927 H       
  53 H53            1.5738   -10.9346    -2.2351 H       
  54 H54            0.1125   -10.6366    -1.2636 H       
  55 H55            0.4514    -8.9629    -5.1865 H       
  56 H56            1.7717    -9.9573    -4.5260 H       
  57 H57            0.2285   -10.7172    -4.9835 H       
@<TRIPOS>BOND
   1    1    2 1
   2    1    5 1
   3    1   31 1
   4    2    3 2
   5    3    4 1
   6    3    6 1
   7    4    5 2
   8    4    9 1
   9    5   32 1
  10    6    7 am
  11    6    8 2
  12    7   11 1
  13    7   33 1
  14    9   10 am
  15    9   34 1
  16   10   12 2
  17   10   18 1
  18   11   13 1
  19   11   17 1
  20   11   35 1
  21   13   14 1
  22   13   36 1
  23   13   37 1
  24   14   15 1
  25   14   38 1
  26   14   39 1
  27   15   16 1
  28   15   24 am
  29   16   17 1
  30   16   40 1
  31   16   41 1
  32   17   42 1
  33   17   43 1
  34   18   19 ar
  35   18   23 ar
  36   19   20 ar
  37   19   44 1
  38   20   21 ar
  39   20   45 1
  40   21   22 ar
  41   21   46 1
  42   22   23 ar
  43   22   47 1
  44   23   48 1
  45   24   29 2
  46   24   27 1
  47   25   26 1
  48   25   49 1
  49   25   50 1
  50   25   51 1
  51   26   27 1
  52   26   28 1
  53   26   30 1
  54   28   52 1
  55   28   53 1
  56   28   54 1
  57   30   55 1
  58   30   56 1
  59   30   57 1

#	End of record

