#	Name: ASD01840350
#	Creating user name:	WinNT
#	Creation time:	15. 06. 2019 19:37

#	Modifying user name:	WinNT
#	Modification time:	15. 06. 2019 19:37

#	Program:	/corina/corina34_cracker 3.40 0067  02.08.2006

@<TRIPOS>MOLECULE
ASD01840350
  32   35    0    0    0
SMALL
NO_CHARGES


@<TRIPOS>ATOM
   1 C1            -0.1980     1.4991     0.0324 C.3     
   2 C2            -0.1584    -0.0074     0.0217 C.2     
   3 C3            -0.3247    -0.7088    -1.1757 C.2     
   4 N4            -0.5291    -0.3211    -2.4311 N.2     
   5 N5            -0.6175    -1.3595    -3.1858 N.2     
   6 C6            -0.4777    -2.4509    -2.4731 C.2     
   7 N7            -0.2891    -2.0821    -1.1878 N.pl3   
   8 N8            -0.0871    -2.8003    -0.0073 N.2     
   9 C9             0.0725    -2.1796     1.1352 C.2     
  10 S10            0.3429    -2.7588     2.7819 S.3     
  11 C11            0.4164    -1.1646     3.5400 C.2     
  12 C12            0.6224    -0.9065     4.9187 C.2     
  13 O13            0.6543     0.2410     5.3252 O.2     
  14 N14            0.7830    -1.9311     5.7794 N.am    
  15 C15            0.9958    -1.6645     7.2041 C.3     
  16 C16            0.2262    -2.5264     8.2069 C.3     
  17 C17            1.7311    -2.7296     8.0201 C.3     
  18 C18            0.2403    -0.2258     2.5665 C.2     
  19 N19            0.2477     1.1314     2.8544 N.pl3   
  20 C20            0.0510    -0.7171     1.2106 C.2     
  21 H21            0.7710     1.8857     0.3481 H       
  22 H22           -0.4259     1.8636    -0.9693 H       
  23 H23           -0.9677     1.8374     0.7260 H       
  24 H24           -0.5084    -3.4637    -2.8468 H       
  25 H25            0.7576    -2.8451     5.4556 H       
  26 H26            1.1696    -0.6208     7.4662 H       
  27 H27           -0.1067    -2.0499     9.1290 H       
  28 H28           -0.4385    -3.2919     7.8066 H       
  29 H29            2.0564    -3.6288     7.4968 H       
  30 H30            2.3883    -2.3867     8.8192 H       
  31 H31            0.2543     1.4315     3.7768 H       
  32 H32            0.2462     1.7801     2.1333 H       
@<TRIPOS>BOND
   1    1    2 1
   2    1   21 1
   3    1   22 1
   4    1   23 1
   5    2   20 2
   6    2    3 1
   7    3    7 1
   8    3    4 2
   9    4    5 1
  10    5    6 2
  11    6    7 1
  12    6   24 1
  13    7    8 1
  14    8    9 2
  15    9   20 1
  16    9   10 1
  17   10   11 1
  18   11   12 1
  19   11   18 2
  20   12   13 2
  21   12   14 am
  22   14   15 1
  23   14   25 1
  24   15   17 1
  25   15   16 1
  26   15   26 1
  27   16   17 1
  28   16   27 1
  29   16   28 1
  30   17   29 1
  31   17   30 1
  32   18   19 1
  33   18   20 1
  34   19   31 1
  35   19   32 1

#	End of record

