#	Name: ASD03331606
#	Creating user name:	WinNT
#	Creation time:	15. 06. 2019 20:39

#	Modifying user name:	WinNT
#	Modification time:	15. 06. 2019 20:39

#	Program:	/corina/corina34_cracker 3.40 0067  02.08.2006

@<TRIPOS>MOLECULE
ASD03331606
  66   68    0    0    0
SMALL
NO_CHARGES


@<TRIPOS>ATOM
   1 C1             0.7266     1.6414    -3.0131 C.ar    
   2 C2             0.5976     0.2739    -2.4640 C.2     
   3 N3            -0.5621    -0.3238    -2.0799 N.pl3   
   4 C4            -0.2582    -1.5670    -1.6372 C.2     
   5 C5             1.0856    -1.7211    -1.7519 C.2     
   6 N6             1.5839    -0.5737    -2.2691 N.2     
   7 C7             1.8598    -2.9201    -1.3854 C.2     
   8 N8             3.1970    -2.9362    -1.5530 N.am    
   9 C9            -1.9281     0.2349    -2.1168 C.3     
  10 C10           -2.4099     0.3333    -0.6602 C.3     
  11 C11           -2.8756    -1.0105    -0.1551 C.3     
  12 N12           -1.8507    -1.9969     0.1132 N.3     
  13 C13           -1.2735    -2.5685    -1.1185 C.3     
  14 C14           -0.1451     2.6478    -2.5966 C.ar    
  15 O15            1.2920    -3.8953    -0.9316 O.2     
  16 C16            3.9666    -4.1283    -1.1886 C.3     
  17 C17           -2.3571    -3.0549     0.9976 C.3     
  18 C18           -3.6623    -0.7828     1.1372 C.3     
  19 C19            3.9558    -5.1185    -2.3549 C.3     
  20 C20            5.3874    -3.7334    -0.8781 C.2     
  21 C21            4.5693    -4.4575    -3.5908 C.3     
  22 C22            4.7728    -6.3567    -1.9802 C.3     
  23 C23            2.5145    -5.5316    -2.6599 C.3     
  24 N24            6.0703    -4.3786     0.0883 N.am    
  25 C25           -0.0201     3.9230    -3.1127 C.ar    
  26 C26            0.9702     4.2022    -4.0439 C.ar    
  27 C27            1.8371     3.2048    -4.4598 C.ar    
  28 C28            1.7243     1.9301    -3.9451 C.ar    
  29 F29            1.0891     5.4505    -4.5467 F       
  30 F30           -0.8631     4.8993    -2.7109 F       
  31 O31            5.9163    -2.8350    -1.4977 O.2     
  32 C32            7.4160    -3.9322     0.4571 C.3     
  33 C33            5.4669    -5.5265     0.7699 C.3     
  34 H34            3.6498    -2.1585    -1.9149 H       
  35 H35           -1.9130     1.2254    -2.5715 H       
  36 H36           -2.5853    -0.4256    -2.6824 H       
  37 H37           -1.5901     0.6867    -0.0347 H       
  38 H38           -3.2350     1.0432    -0.6029 H       
  39 H39           -3.5604    -1.4286    -0.8929 H       
  40 H40           -2.0572    -2.7218    -1.8604 H       
  41 H41           -0.7815    -3.5150    -0.8944 H       
  42 H42           -0.9163     2.4303    -1.8724 H       
  43 H43            3.5193    -4.5954    -0.3112 H       
  44 H44           -3.2792    -3.4635     0.5844 H       
  45 H45           -1.6130    -3.8473     1.0791 H       
  46 H46           -2.5546    -2.6389     1.9856 H       
  47 H47           -4.4331    -0.0314     0.9658 H       
  48 H48           -4.1289    -1.7176     1.4480 H       
  49 H49           -2.9854    -0.4373     1.9186 H       
  50 H50            5.5961    -4.1633    -3.3735 H       
  51 H51            4.5616    -5.1630    -4.4217 H       
  52 H52            3.9873    -3.5754    -3.8578 H       
  53 H53            4.3895    -6.7772    -1.0505 H       
  54 H54            4.6929    -7.0987    -2.7747 H       
  55 H55            5.8178    -6.0763    -1.8486 H       
  56 H56            1.9325    -4.6495    -2.9268 H       
  57 H57            2.5068    -6.2370    -3.4908 H       
  58 H58            2.0775    -6.0025    -1.7794 H       
  59 H59            2.6058     3.4269    -5.1853 H       
  60 H60            2.4010     1.1539    -4.2705 H       
  61 H61            7.3474    -3.1913     1.2536 H       
  62 H62            7.9996    -4.7851     0.8035 H       
  63 H63            7.9022    -3.4880    -0.4115 H       
  64 H64            5.6796    -6.4358     0.2079 H       
  65 H65            5.8838    -5.6135     1.7733 H       
  66 H66            4.3882    -5.3840     0.8358 H       
@<TRIPOS>BOND
   1    1    2 1
   2    1   14 ar
   3    1   28 ar
   4    2    3 1
   5    2    6 2
   6    3    4 1
   7    3    9 1
   8    4    5 2
   9    4   13 1
  10    5    6 1
  11    5    7 1
  12    7    8 am
  13    7   15 2
  14    8   16 1
  15    8   34 1
  16    9   10 1
  17    9   35 1
  18    9   36 1
  19   10   11 1
  20   10   37 1
  21   10   38 1
  22   11   12 1
  23   11   18 1
  24   11   39 1
  25   12   13 1
  26   12   17 1
  27   13   40 1
  28   13   41 1
  29   14   25 ar
  30   14   42 1
  31   16   19 1
  32   16   20 1
  33   16   43 1
  34   17   44 1
  35   17   45 1
  36   17   46 1
  37   18   47 1
  38   18   48 1
  39   18   49 1
  40   19   21 1
  41   19   22 1
  42   19   23 1
  43   20   24 am
  44   20   31 2
  45   21   50 1
  46   21   51 1
  47   21   52 1
  48   22   53 1
  49   22   54 1
  50   22   55 1
  51   23   56 1
  52   23   57 1
  53   23   58 1
  54   24   32 1
  55   24   33 1
  56   25   26 ar
  57   25   30 1
  58   26   27 ar
  59   26   29 1
  60   27   28 ar
  61   27   59 1
  62   28   60 1
  63   32   61 1
  64   32   62 1
  65   32   63 1
  66   33   64 1
  67   33   65 1
  68   33   66 1

#	End of record

