#	Name: ASD00170700
#	Creating user name:	WinNT
#	Creation time:	15. 06. 2019 18:32

#	Modifying user name:	WinNT
#	Modification time:	15. 06. 2019 18:32

#	Program:	/corina/corina34_cracker 3.40 0067  02.08.2006

@<TRIPOS>MOLECULE
ASD00170700
  21   23    0    0    0
SMALL
NO_CHARGES


@<TRIPOS>ATOM
   1 C1            -0.0162     1.3445     0.0094 C.2     
   2 C2             0.0021    -0.0041     0.0020 C.2     
   3 C3            -1.3286    -0.5987     0.0116 C.2     
   4 C4            -2.3364     0.3476     0.0266 C.2     
   5 S5            -1.6547     1.9625     0.0360 S.3     
   6 C6             0.9903    -1.1212    -0.0139 C.ar    
   7 C7             0.2962    -2.3401    -0.0139 C.ar    
   8 C8            -1.1520    -2.0623     0.0017 C.2     
   9 C9             2.3822    -1.1144    -0.0278 C.ar    
  10 C10            3.0750    -2.3092    -0.0416 C.ar    
  11 C11            2.3924    -3.5147    -0.0417 C.ar    
  12 C12            1.0132    -3.5388    -0.0280 C.ar    
  13 O13           -2.0427    -2.8934     0.0061 O.2     
  14 N14           -3.6814     0.0627     0.0375 N.pl3   
  15 H15            4.1549    -2.3036    -0.0528 H       
  16 H16            0.8678     1.9648     0.0043 H       
  17 H17            2.9191    -0.1773    -0.0282 H       
  18 H18            2.9444    -4.4429    -0.0529 H       
  19 H19            0.4887    -4.4828    -0.0281 H       
  20 H20           -3.9818    -0.8596     0.0349 H       
  21 H21           -4.3299     0.7840     0.0478 H       
@<TRIPOS>BOND
   1    1    2 2
   2    1   16 1
   3    1    5 1
   4    2    3 1
   5    2    6 1
   6    3    4 2
   7    3    8 1
   8    4    5 1
   9    4   14 1
  10    6    7 ar
  11    6    9 ar
  12    7    8 1
  13    7   12 ar
  14    8   13 2
  15    9   10 ar
  16    9   17 1
  17   10   11 ar
  18   10   15 1
  19   11   12 ar
  20   11   18 1
  21   12   19 1
  22   14   20 1
  23   14   21 1

#	End of record

