#	Name: ASD01913211
#	Creating user name:	WinNT
#	Creation time:	15. 06. 2019 20:01

#	Modifying user name:	WinNT
#	Modification time:	15. 06. 2019 20:01

#	Program:	/corina/corina34_cracker 3.40 0067  02.08.2006

@<TRIPOS>MOLECULE
ASD01913211
  47   50    0    0    0
SMALL
NO_CHARGES


@<TRIPOS>ATOM
   1 C1             0.6930     1.9789    -1.6050 C.2     
   2 C2             0.2802     0.6194    -1.0944 C.3     
   3 N3             1.9617     2.4567    -1.5380 N.pl3   
   4 N4             1.5198    -0.1204    -0.7902 N.am    
   5 C5             2.5998     0.5945    -0.0932 C.3     
   6 C6             3.1064     1.7361    -0.9827 C.3     
   7 N7             0.6920     3.9140    -2.4495 N.2     
   8 N8            -0.0400     2.8919    -2.1635 N.2     
   9 C9             1.9270     3.6901    -2.0806 C.2     
  10 C10            3.0914     4.6349    -2.2308 C.3     
  11 F11            2.6158     5.9197    -2.5142 F       
  12 F12            3.8267     4.6618    -1.0409 F       
  13 F13            3.9126     4.2004    -3.2767 F       
  14 C14            1.6584    -1.4144    -1.1406 C.2     
  15 O15            2.7241    -1.9771    -0.9794 O.2     
  16 C16            0.5162    -2.1487    -1.7201 C.ar    
  17 C17            0.7340    -3.1149    -2.7014 C.ar    
  18 C18           -0.3477    -3.8044    -3.2445 C.ar    
  19 C19           -1.6495    -3.5210    -2.7993 C.ar    
  20 C20           -1.8542    -2.5575    -1.8223 C.ar    
  21 C21           -0.7838    -1.8793    -1.2807 C.ar    
  22 C22           -0.1335    -4.7981    -4.2531 C.1     
  23 C23            0.0422    -5.6128    -5.0800 C.1     
  24 C24            0.2564    -6.6064    -6.0887 C.ar    
  25 C25           -0.8344    -7.2938    -6.6284 C.ar    
  26 C26           -0.6102    -8.2498    -7.6018 C.ar    
  27 C27            0.6961    -8.4909    -8.0070 C.ar    
  28 C28            1.7294    -7.7747    -7.4314 C.ar    
  29 N29            1.4912    -6.8649    -6.5091 N.ar    
  30 O30           -2.7063    -4.1889    -3.3248 O.3     
  31 C31           -4.0015    -3.8497    -2.8255 C.3     
  32 H32           -0.3195     0.7279    -0.1907 H       
  33 H33           -0.2896     0.0920    -1.8593 H       
  34 H34            2.2205     1.0035     0.8432 H       
  35 H35            3.4178    -0.0953     0.1149 H       
  36 H36            3.7073     1.3261    -1.7945 H       
  37 H37            3.7133     2.4191    -0.3883 H       
  38 H38            1.7375    -3.3276    -3.0394 H       
  39 H39           -2.8561    -2.3410    -1.4819 H       
  40 H40           -0.9499    -1.1339    -0.5171 H       
  41 H41           -1.8377    -7.0814    -6.2899 H       
  42 H42           -1.4330    -8.7974    -8.0373 H       
  43 H43            0.9032    -9.2317    -8.7651 H       
  44 H44            2.7458    -7.9613    -7.7452 H       
  45 H45           -4.0387    -4.0402    -1.7529 H       
  46 H46           -4.1988    -2.7945    -3.0141 H       
  47 H47           -4.7550    -4.4558    -3.3284 H       
@<TRIPOS>BOND
   1    1    2 1
   2    1    3 1
   3    1    8 2
   4    2    4 1
   5    2   32 1
   6    2   33 1
   7    3    6 1
   8    3    9 1
   9    4    5 1
  10    4   14 am
  11    5    6 1
  12    5   34 1
  13    5   35 1
  14    6   36 1
  15    6   37 1
  16    7    8 1
  17    7    9 2
  18    9   10 1
  19   10   11 1
  20   10   12 1
  21   10   13 1
  22   14   15 2
  23   14   16 1
  24   16   17 ar
  25   16   21 ar
  26   17   18 ar
  27   17   38 1
  28   18   19 ar
  29   18   22 1
  30   19   20 ar
  31   19   30 1
  32   20   21 ar
  33   20   39 1
  34   21   40 1
  35   22   23 3
  36   23   24 1
  37   24   25 ar
  38   24   29 ar
  39   25   26 ar
  40   25   41 1
  41   26   27 ar
  42   26   42 1
  43   27   28 ar
  44   27   43 1
  45   28   29 ar
  46   28   44 1
  47   30   31 1
  48   31   45 1
  49   31   46 1
  50   31   47 1

#	End of record

