#	Name: ASD02198370
#	Creating user name:	WinNT
#	Creation time:	15. 06. 2019 20:19

#	Modifying user name:	WinNT
#	Modification time:	15. 06. 2019 20:19

#	Program:	/corina/corina34_cracker 3.40 0067  02.08.2006

@<TRIPOS>MOLECULE
ASD02198370
  41   43    0    0    0
SMALL
NO_CHARGES


@<TRIPOS>ATOM
   1 C1             0.0016     1.4017     0.2381 C.2     
   2 C2             0.0124     0.0162     0.2363 C.2     
   3 S3             1.6713     1.9494     0.1115 S.3     
   4 C4             2.2168     0.3309     0.0688 C.2     
   5 N5             1.2153    -0.4985     0.1444 N.2     
   6 N6            -1.1362    -0.7513     0.3235 N.pl3   
   7 C7            -1.1297     2.2172     0.3196 C.2     
   8 C8            -0.9799     3.7167     0.3101 C.3     
   9 O9            -2.2358     1.7170     0.3983 O.2     
  10 N10            3.5367    -0.0459    -0.0324 N.pl3   
  11 C11            3.8881    -1.3978     0.0627 C.ar    
  12 C12            4.9924    -1.8789    -0.6283 C.ar    
  13 C13            5.3383    -3.2124    -0.5340 C.ar    
  14 C14            4.5829    -4.0714     0.2507 C.ar    
  15 C15            3.4797    -3.5917     0.9414 C.ar    
  16 C16            3.1358    -2.2572     0.8527 C.ar    
  17 C17           -2.2714     4.3722    -0.2096 C.3     
  18 C18           -2.8010     5.2669     0.9301 C.3     
  19 C19           -1.5467     5.5754     1.7849 C.3     
  20 C20           -0.7697     4.2360     1.7475 C.3     
  21 O21            4.9239    -5.3846     0.3427 O.3     
  22 C22            4.1020    -6.2120     1.1685 C.3     
  23 H23           -2.0030    -0.3212     0.3902 H       
  24 H24           -1.0743    -1.7193     0.3181 H       
  25 H25           -0.1367     4.0035    -0.3183 H       
  26 H26            4.2235     0.6252    -0.1695 H       
  27 H27            5.5804    -1.2103    -1.2396 H       
  28 H28            6.1969    -3.5868    -1.0717 H       
  29 H29            2.8921    -4.2612     1.5521 H       
  30 H30            2.2770    -1.8838     1.3907 H       
  31 H31           -2.0548     4.9777    -1.0897 H       
  32 H32           -3.0066     3.6057    -0.4549 H       
  33 H33           -3.2240     6.1872     0.5275 H       
  34 H34           -3.5436     4.7315     1.5217 H       
  35 H35           -0.9594     6.3754     1.3343 H       
  36 H36           -1.8286     5.8300     2.8066 H       
  37 H37           -1.1842     3.5341     2.4711 H       
  38 H38            0.2897     4.4040     1.9413 H       
  39 H39            4.4834    -7.2330     1.1539 H       
  40 H40            4.1161    -5.8335     2.1906 H       
  41 H41            3.0795    -6.2006     0.7909 H       
@<TRIPOS>BOND
   1    1    2 2
   2    1    3 1
   3    1    7 1
   4    2    6 1
   5    2    5 1
   6    3    4 1
   7    4    5 2
   8    4   10 1
   9    6   23 1
  10    6   24 1
  11    7    8 1
  12    7    9 2
  13    8   17 1
  14    8   20 1
  15    8   25 1
  16   10   11 1
  17   10   26 1
  18   11   12 ar
  19   11   16 ar
  20   12   13 ar
  21   12   27 1
  22   13   14 ar
  23   13   28 1
  24   14   15 ar
  25   14   21 1
  26   15   16 ar
  27   15   29 1
  28   16   30 1
  29   17   18 1
  30   17   31 1
  31   17   32 1
  32   18   19 1
  33   18   33 1
  34   18   34 1
  35   19   20 1
  36   19   35 1
  37   19   36 1
  38   20   37 1
  39   20   38 1
  40   21   22 1
  41   22   39 1
  42   22   40 1
  43   22   41 1

#	End of record

