#	Name: ASD03091168
#	Creating user name:	WinNT
#	Creation time:	15. 06. 2019 20:30

#	Modifying user name:	WinNT
#	Modification time:	15. 06. 2019 20:30

#	Program:	/corina/corina34_cracker 3.40 0067  02.08.2006

@<TRIPOS>MOLECULE
ASD03091168
  38   41    0    0    0
SMALL
NO_CHARGES


@<TRIPOS>ATOM
   1 N1             0.0099     1.2527    -0.0028 N.2     
   2 C2            -1.1132     1.7961     0.3553 C.2     
   3 N3            -1.2255     3.0937     0.7449 N.am    
   4 C4            -0.1385     3.8995     0.7772 C.2     
   5 C5             1.1499     3.3144     0.3773 C.ar    
   6 C6             2.3276     4.0582     0.3751 C.ar    
   7 C7             3.5112     3.4529    -0.0120 C.ar    
   8 C8             3.5253     2.1121    -0.3960 C.ar    
   9 C9             2.3779     1.3714    -0.3989 C.ar    
  10 C10            1.1701     1.9568    -0.0126 C.ar    
  11 O11           -0.2242     5.0634     1.1235 O.2     
  12 C12           -2.5347     3.6246     1.1326 C.3     
  13 N13            7.4938     4.4330     0.2820 N.3     
  14 C14            6.8986     4.5359    -1.0682 C.3     
  15 C15            5.5914     3.7408    -1.0959 C.3     
  16 N16            4.6987     4.1899    -0.0184 N.3     
  17 C17            5.3847     4.1008     1.2883 C.3     
  18 C18            6.1153     2.7347     1.3282 C.3     
  19 C19            7.4905     3.0061     0.6884 C.3     
  20 C20            6.5671     5.1061     1.2341 C.3     
  21 H21           -2.0043     1.1860     0.3428 H       
  22 H22            2.3176     5.0966     0.6720 H       
  23 H23            4.4561     1.6535    -0.6955 H       
  24 H24            2.4045     0.3344    -0.6995 H       
  25 H25           -3.2856     2.8394     1.0449 H       
  26 H26           -2.4938     3.9747     2.1641 H       
  27 H27           -2.7987     4.4547     0.4774 H       
  28 H28            6.6947     5.5817    -1.2984 H       
  29 H29            7.5905     4.1266    -1.8043 H       
  30 H30            5.0994     3.8886    -2.0573 H       
  31 H31            5.8107     2.6812    -0.9647 H       
  32 H32            4.7132     4.2530     2.1333 H       
  33 H33            6.2355     2.3985     2.3581 H       
  34 H34            5.5662     1.9934     0.7477 H       
  35 H35            7.6284     2.3686    -0.1849 H       
  36 H36            8.2828     2.8227     1.4141 H       
  37 H37            7.0292     5.2182     2.2149 H       
  38 H38            6.2414     6.0709     0.8453 H       
@<TRIPOS>BOND
   1    1    2 2
   2    1   10 1
   3    2    3 1
   4    2   21 1
   5    3    4 am
   6    3   12 1
   7    4    5 1
   8    4   11 2
   9    5    6 ar
  10    5   10 ar
  11    6    7 ar
  12    6   22 1
  13    7    8 ar
  14    7   16 1
  15    8    9 ar
  16    8   23 1
  17    9   10 ar
  18    9   24 1
  19   12   25 1
  20   12   26 1
  21   12   27 1
  22   13   14 1
  23   13   19 1
  24   13   20 1
  25   14   15 1
  26   14   28 1
  27   14   29 1
  28   15   16 1
  29   15   30 1
  30   15   31 1
  31   16   17 1
  32   17   18 1
  33   17   20 1
  34   17   32 1
  35   18   19 1
  36   18   33 1
  37   18   34 1
  38   19   35 1
  39   19   36 1
  40   20   37 1
  41   20   38 1

#	End of record

