#	Name: ASD03090217
#	Creating user name:	WinNT
#	Creation time:	15. 06. 2019 20:28

#	Modifying user name:	WinNT
#	Modification time:	15. 06. 2019 20:28

#	Program:	/corina/corina34_cracker 3.40 0067  02.08.2006

@<TRIPOS>MOLECULE
ASD03090217
  45   47    0    0    0
SMALL
NO_CHARGES


@<TRIPOS>ATOM
   1 N1             0.4455     1.5144     1.4655 N.ar    
   2 C2             0.4075     0.1961     1.4317 C.ar    
   3 C3             1.5342    -0.5374     1.1222 C.ar    
   4 C4             2.7273     0.1377     0.8420 C.ar    
   5 C5             2.7216     1.5357     0.8891 C.ar    
   6 C6             1.5489     2.1896     1.2080 C.ar    
   7 C7             3.9615    -0.6069     0.5055 C.2     
   8 N8             5.7411    -3.4565    -0.5275 N.pl3   
   9 C9             4.8155    -4.4449    -0.8725 C.ar    
  10 C10            3.5996    -4.0911    -1.4433 C.ar    
  11 C11            2.6872    -5.0707    -1.7836 C.ar    
  12 C12            2.9831    -6.4021    -1.5566 C.ar    
  13 C13            4.1929    -6.7579    -0.9885 C.ar    
  14 C14            5.1118    -5.7842    -0.6507 C.ar    
  15 N15            4.0260    -1.8630     0.1122 N.2     
  16 C16            5.2976    -2.2026    -0.1025 C.2     
  17 N17            6.0659    -1.1676     0.1505 N.2     
  18 N18            5.2206    -0.1167     0.5417 N.pl3   
  19 C19            5.6241     1.2390     0.9230 C.3     
  20 C20            5.7300     2.1109    -0.3298 C.3     
  21 C21           -0.8842    -0.5183     1.7356 C.3     
  22 O22            6.1236     3.4333     0.0420 O.3     
  23 C23           -1.4057    -0.0698     3.1023 C.3     
  24 C24            4.5110    -8.2104    -0.7431 C.3     
  25 F25            3.4382    -9.0011    -1.1687 F       
  26 F26            5.6618    -8.5628    -1.4563 F       
  27 F27            4.7282    -8.4157     0.6236 F       
  28 H28            1.4960    -1.6164     1.0970 H       
  29 H29            3.6215     2.0949     0.6797 H       
  30 H30            1.5343     3.2688     1.2466 H       
  31 H31            6.6917    -3.6416    -0.5831 H       
  32 H32            3.3677    -3.0513    -1.6204 H       
  33 H33            1.7415    -4.7963    -2.2270 H       
  34 H34            2.2678    -7.1660    -1.8233 H       
  35 H35            6.0563    -6.0626    -0.2071 H       
  36 H36            4.8813     1.6627     1.5988 H       
  37 H37            6.5919     1.2029     1.4233 H       
  38 H38            6.4728     1.6872    -1.0057 H       
  39 H39            4.7622     2.1471    -0.8302 H       
  40 H40           -1.6210    -0.2786     0.9690 H       
  41 H41           -0.7100    -1.5942     1.7484 H       
  42 H42            6.2107     4.0422    -0.7041 H       
  43 H43           -2.3399    -0.5865     3.3221 H       
  44 H44           -0.6688    -0.3095     3.8689 H       
  45 H45           -1.5798     1.0061     3.0895 H       
@<TRIPOS>BOND
   1    1    2 ar
   2    1    6 ar
   3    2    3 ar
   4    2   21 1
   5    3    4 ar
   6    3   28 1
   7    4    5 ar
   8    4    7 1
   9    5    6 ar
  10    5   29 1
  11    6   30 1
  12    7   15 2
  13    7   18 1
  14    8    9 1
  15    8   16 1
  16    8   31 1
  17    9   10 ar
  18    9   14 ar
  19   10   11 ar
  20   10   32 1
  21   11   12 ar
  22   11   33 1
  23   12   13 ar
  24   12   34 1
  25   13   14 ar
  26   13   24 1
  27   14   35 1
  28   15   16 1
  29   16   17 2
  30   17   18 1
  31   18   19 1
  32   19   20 1
  33   19   36 1
  34   19   37 1
  35   20   22 1
  36   20   38 1
  37   20   39 1
  38   21   23 1
  39   21   40 1
  40   21   41 1
  41   22   42 1
  42   23   43 1
  43   23   44 1
  44   23   45 1
  45   24   25 1
  46   24   26 1
  47   24   27 1

#	End of record

