#	Name: ASD01881994
#	Creating user name:	WinNT
#	Creation time:	15. 06. 2019 19:43

#	Modifying user name:	WinNT
#	Modification time:	15. 06. 2019 19:43

#	Program:	/corina/corina34_cracker 3.40 0067  02.08.2006

@<TRIPOS>MOLECULE
ASD01881994
  50   54    0    0    0
SMALL
NO_CHARGES


@<TRIPOS>ATOM
   1 C1            -0.0162     1.3398     0.0094 C.2     
   2 N2             0.0021    -0.0041     0.0020 N.am    
   3 C3             1.3974    -0.4575    -0.0137 C.3     
   4 C4             2.2461     0.7897    -0.0151 C.ar    
   5 C5             3.6024     1.0021    -0.0270 C.ar    
   6 C6             4.1020     2.3058    -0.0247 C.ar    
   7 C7             3.2219     3.3884    -0.0105 C.ar    
   8 C8             1.8623     3.1753     0.0018 C.ar    
   9 C9             1.3595     1.8709    -0.0009 C.ar    
  10 O10           -1.0233     2.0206     0.0181 O.2     
  11 C11            5.5661     2.5396    -0.0370 C.ar    
  12 C12            6.0670     3.8405    -0.0348 C.ar    
  13 C13            7.4306     4.0520    -0.0457 C.ar    
  14 C14            8.3001     2.9761    -0.0593 C.ar    
  15 C15            7.8088     1.6830    -0.0620 C.ar    
  16 C16            6.4471     1.4593    -0.0449 C.ar    
  17 C17            9.7882     3.2138    -0.0717 C.3     
  18 C18           10.7177     2.2426     2.0276 C.2     
  19 N19           11.1190     2.5687     3.2633 N.am    
  20 C20           10.9551     4.0170     3.4580 C.3     
  21 C21           10.3815     4.5076     2.1145 C.3     
  22 N22           10.2830     3.2836     1.3054 N.am    
  23 O23           10.7500     1.1054     1.5986 O.2     
  24 C24           11.6385     1.6313     4.2621 C.3     
  25 C25           -1.1772    -0.8732     0.0090 C.3     
  26 C26           -2.1371    -0.7520     1.1943 C.3     
  27 C27           -2.5439    -0.2112    -0.1779 C.3     
  28 H28            1.6079    -1.0528     0.8747 H       
  29 H29            1.5909    -1.0432    -0.9124 H       
  30 H30            4.2816     0.1624    -0.0376 H       
  31 H31            3.6089     4.3967    -0.0088 H       
  32 H32            1.1840     4.0156     0.0135 H       
  33 H33            5.3891     4.6812    -0.0249 H       
  34 H34            7.8198     5.0595    -0.0440 H       
  35 H35            8.4923     0.8468    -0.0730 H       
  36 H36            6.0648     0.4492    -0.0421 H       
  37 H37           10.2825     2.3949    -0.5944 H       
  38 H38           10.0019     4.1526    -0.5826 H       
  39 H39           10.2548     4.2172     4.2689 H       
  40 H40           11.9178     4.4875     3.6576 H       
  41 H41            9.3963     4.9514     2.2583 H       
  42 H42           11.0594     5.2217     1.6470 H       
  43 H43           11.6492     0.6245     3.8446 H       
  44 H44           12.6523     1.9205     4.5391 H       
  45 H45           11.0006     1.6515     5.1458 H       
  46 H46           -1.0340    -1.8635    -0.4233 H       
  47 H47           -2.6256    -1.6624     1.5415 H       
  48 H48           -1.8911    -0.0256     1.9689 H       
  49 H49           -2.5655     0.8710    -0.3061 H       
  50 H50           -3.3000    -0.7658    -0.7335 H       
@<TRIPOS>BOND
   1    1    2 am
   2    1    9 1
   3    1   10 2
   4    2    3 1
   5    2   25 1
   6    3    4 1
   7    3   28 1
   8    3   29 1
   9    4    5 ar
  10    4    9 ar
  11    5    6 ar
  12    5   30 1
  13    6    7 ar
  14    6   11 1
  15    7    8 ar
  16    7   31 1
  17    8    9 ar
  18    8   32 1
  19   11   12 ar
  20   11   16 ar
  21   12   13 ar
  22   12   33 1
  23   13   14 ar
  24   13   34 1
  25   14   15 ar
  26   14   17 1
  27   15   16 ar
  28   15   35 1
  29   16   36 1
  30   17   22 1
  31   17   37 1
  32   17   38 1
  33   18   19 am
  34   18   22 am
  35   18   23 2
  36   19   20 1
  37   19   24 1
  38   20   21 1
  39   20   39 1
  40   20   40 1
  41   21   22 1
  42   21   41 1
  43   21   42 1
  44   24   43 1
  45   24   44 1
  46   24   45 1
  47   25   26 1
  48   25   27 1
  49   25   46 1
  50   26   27 1
  51   26   47 1
  52   26   48 1
  53   27   49 1
  54   27   50 1

#	End of record

