#	Name: ASD07931974
#	Creating user name:	WinNT
#	Creation time:	15. 06. 2019 21:14

#	Modifying user name:	WinNT
#	Modification time:	15. 06. 2019 21:14

#	Program:	/corina/corina34_cracker 3.40 0067  02.08.2006

@<TRIPOS>MOLECULE
ASD07931974
  45   48    0    0    0
SMALL
NO_CHARGES


@<TRIPOS>ATOM
   1 C1            -0.0180     1.4736     0.0101 C.2     
   2 C2             0.0021    -0.0041     0.0020 C.ar    
   3 C3             1.2186    -0.6887    -0.0133 C.ar    
   4 C4             1.2302    -2.0681    -0.0208 C.ar    
   5 C5             0.0396    -2.7731    -0.0138 C.ar    
   6 C6            -1.1696    -2.1008     0.0014 C.ar    
   7 C7            -1.1954    -0.7216     0.0154 C.ar    
   8 O8             1.0261     2.0955     0.0035 O.2     
   9 N9            -1.1942     2.1316     0.0193 N.am    
  10 S10            0.3216     4.3761     0.0243 S.3     
  11 C11           -1.2129     3.5126     0.0269 C.2     
  12 N12           -2.3410     4.1076     0.0351 N.2     
  13 C13           -2.6610     5.5147     0.0580 C.3     
  14 C14           -1.4444     6.4414     0.1967 C.3     
  15 C15           -0.2543     5.9695    -0.6172 C.3     
  16 O16           -2.3546     6.0020     2.3636 O.3     
  17 C17           -3.3997     5.8140     1.3948 C.3     
  18 C18           -1.1482     6.4144     1.7046 C.3     
  19 C19           -0.7451     7.8111     2.1816 C.3     
  20 F20           -1.7893     8.7083     1.9327 F       
  21 F21           -0.4779     7.7759     3.5544 F       
  22 F22            0.4003     8.2262     1.4940 F       
  23 C23           -3.5109     5.8919    -1.1279 C.ar    
  24 C24           -3.9401     7.1992    -1.2847 C.ar    
  25 C25           -4.7208     7.5442    -2.3747 C.ar    
  26 C26           -5.0708     6.5839    -3.3051 C.ar    
  27 C27           -4.6421     5.2793    -3.1473 C.ar    
  28 C28           -3.8573     4.9348    -2.0624 C.ar    
  29 F29           -3.5977     8.1369    -0.3744 F       
  30 H30            2.1486    -0.1396    -0.0195 H       
  31 H31            2.1706    -2.5990    -0.0327 H       
  32 H32            0.0543    -3.8530    -0.0205 H       
  33 H33           -2.0953    -2.6571     0.0065 H       
  34 H34           -2.1399    -0.1980     0.0321 H       
  35 H35           -2.0276     1.6352     0.0206 H       
  36 H36           -1.7169     7.4533    -0.1033 H       
  37 H37            0.5494     6.7023    -0.5448 H       
  38 H38           -0.5499     5.8559    -1.6602 H       
  39 H39           -3.9980     6.7204     1.3023 H       
  40 H40           -4.0299     4.9704     1.6764 H       
  41 H41           -0.3492     5.7029     1.9134 H       
  42 H42           -5.0564     8.5634    -2.4977 H       
  43 H43           -5.6798     6.8529    -4.1555 H       
  44 H44           -4.9167     4.5295    -3.8745 H       
  45 H45           -3.5186     3.9163    -1.9429 H       
@<TRIPOS>BOND
   1    1    2 1
   2    1    8 2
   3    1    9 am
   4    2    3 ar
   5    2    7 ar
   6    3    4 ar
   7    3   30 1
   8    4    5 ar
   9    4   31 1
  10    5    6 ar
  11    5   32 1
  12    6    7 ar
  13    6   33 1
  14    7   34 1
  15    9   11 1
  16    9   35 1
  17   10   11 1
  18   10   15 1
  19   11   12 2
  20   12   13 1
  21   13   17 1
  22   13   23 1
  23   13   14 1
  24   14   15 1
  25   14   18 1
  26   14   36 1
  27   15   37 1
  28   15   38 1
  29   16   17 1
  30   16   18 1
  31   17   39 1
  32   17   40 1
  33   18   19 1
  34   18   41 1
  35   19   20 1
  36   19   21 1
  37   19   22 1
  38   23   24 ar
  39   23   28 ar
  40   24   25 ar
  41   24   29 1
  42   25   26 ar
  43   25   42 1
  44   26   27 ar
  45   26   43 1
  46   27   28 ar
  47   27   44 1
  48   28   45 1

#	End of record

