#	Name: ASD08070213
#	Creating user name:	WinNT
#	Creation time:	15. 06. 2019 21:14

#	Modifying user name:	WinNT
#	Modification time:	15. 06. 2019 21:14

#	Program:	/corina/corina34_cracker 3.40 0067  02.08.2006

@<TRIPOS>MOLECULE
ASD08070213
  36   38    0    0    0
SMALL
NO_CHARGES


@<TRIPOS>ATOM
   1 C1            -0.0180     1.4738     0.0101 C.ar    
   2 C2             0.0021    -0.0041     0.0020 C.2     
   3 O3             1.0629    -0.5975    -0.0113 O.2     
   4 N4            -1.1558    -0.6938     0.0094 N.am    
   5 C5            -1.1360    -2.1586     0.0013 C.3     
   6 C6            -2.4304    -2.6896     0.6205 C.3     
   7 C7            -2.4096    -4.2195     0.6121 C.3     
   8 C8             1.1784     2.1570     0.0024 C.ar    
   9 C9             1.1781     3.5634     0.0099 C.ar    
  10 C10           -0.1242     4.2762     0.0262 C.ar    
  11 C11           -1.3470     3.4914     0.0337 C.ar    
  12 C12           -1.0171    -2.6591    -1.4396 C.3     
  13 C13           -0.9963    -4.1890    -1.4480 C.3     
  14 C14           -2.2907    -4.7200    -0.8288 C.3     
  15 C15           -1.2623     2.1402     0.0198 C.ar    
  16 N16            2.0447     4.5466     0.0070 N.2     
  17 O17            1.4461     5.6036     0.0183 O.3     
  18 N18            0.2332     5.5352     0.0296 N.2     
  19 C19           -2.5493    -2.1891     2.0614 C.3     
  20 H20           -2.0023    -0.2203     0.0200 H       
  21 H21           -0.2837    -2.5136     0.5807 H       
  22 H22           -3.2826    -2.3346     0.0410 H       
  23 H23           -1.5574    -4.5745     1.1915 H       
  24 H24           -3.3318    -4.5978     1.0532 H       
  25 H25            2.1124     1.6149    -0.0091 H       
  26 H26           -2.3104     3.9793     0.0455 H       
  27 H27           -1.8693    -2.3041    -2.0190 H       
  28 H28           -0.0949    -2.2808    -1.8807 H       
  29 H29           -0.9116    -4.5455    -2.4746 H       
  30 H30           -0.1441    -4.5440    -0.8686 H       
  31 H31           -2.2760    -5.8099    -0.8348 H       
  32 H32           -3.1430    -4.3650    -1.4083 H       
  33 H33           -2.1710     1.5565     0.0253 H       
  34 H34           -2.5641    -1.0992     2.0674 H       
  35 H35           -3.4715    -2.5674     2.5025 H       
  36 H36           -1.6970    -2.5441     2.6408 H       
@<TRIPOS>BOND
   1    1    2 1
   2    1    8 ar
   3    1   15 ar
   4    2    3 2
   5    2    4 am
   6    4    5 1
   7    4   20 1
   8    5    6 1
   9    5   12 1
  10    5   21 1
  11    6    7 1
  12    6   19 1
  13    6   22 1
  14    7   14 1
  15    7   23 1
  16    7   24 1
  17    8    9 ar
  18    8   25 1
  19    9   10 ar
  20    9   16 2
  21   10   11 ar
  22   10   18 2
  23   11   15 ar
  24   11   26 1
  25   12   13 1
  26   12   27 1
  27   12   28 1
  28   13   14 1
  29   13   29 1
  30   13   30 1
  31   14   31 1
  32   14   32 1
  33   15   33 1
  34   16   17 1
  35   17   18 1
  36   19   34 1
  37   19   35 1
  38   19   36 1

#	End of record

