#	Name: ASD02560155
#	Creating user name:	WinNT
#	Creation time:	15. 06. 2019 20:24

#	Modifying user name:	WinNT
#	Modification time:	15. 06. 2019 20:24

#	Program:	/corina/corina34_cracker 3.40 0067  02.08.2006

@<TRIPOS>MOLECULE
ASD02560155
  49   52    0    0    0
SMALL
NO_CHARGES


@<TRIPOS>ATOM
   1 Br1            1.8146     2.4606    -1.5444 Br      
   2 N2             0.0916     1.3285     0.4004 N.2     
   3 N3            -0.1365     0.1265     0.2325 N.2     
   4 C4             1.5166     1.6302     0.2124 C.3     
   5 N5             2.1951     0.3114     0.2828 N.3     
   6 C6             1.0922    -0.6061    -0.0999 C.3     
   7 S7             1.1892    -2.1441     0.8572 S.3     
   8 C8             1.0397    -1.5684     2.5709 C.3     
   9 C9             1.1033    -2.7494     3.5049 C.2     
  10 O10            1.2364    -3.8692     3.0584 O.2     
  11 N11            1.0123    -2.5612     4.8363 N.am    
  12 C12            3.2453     0.2400    -0.6330 C.ar    
  13 C13            1.0093    -3.6625     5.7003 C.ar    
  14 C14            0.3323    -3.5952     6.9124 C.ar    
  15 C15            0.3312    -4.6846     7.7624 C.ar    
  16 C16            1.0027    -5.8406     7.4078 C.ar    
  17 C17            1.6768    -5.9102     6.2028 C.ar    
  18 C18            1.6775    -4.8264     5.3459 C.ar    
  19 Cl19          -0.5101    -2.1442     7.3580 Cl      
  20 S20            0.9995    -7.2275     8.4946 S.o2    
  21 O21            2.1507    -7.9945     8.1697 O.2     
  22 O22            0.7480    -6.7166     9.7965 O.2     
  23 C23            4.3233     1.1468    -0.5513 C.ar    
  24 C24            3.2413    -0.7206    -1.6213 C.ar    
  25 C25            4.2841    -0.8018    -2.5397 C.ar    
  26 C26            5.3358     0.0643    -2.4880 C.ar    
  27 C27            5.3795     1.0560    -1.4912 C.ar    
  28 C28            6.4502     1.9631    -1.4131 C.ar    
  29 C29            6.4604     2.9105    -0.4360 C.ar    
  30 C30            5.4236     2.9958     0.4912 C.ar    
  31 C31            4.3684     2.1368     0.4429 C.ar    
  32 N32           -0.3106    -8.1590     8.0967 N.am    
  33 F33            6.3374    -0.0333    -3.3894 F       
  34 H34            1.8743     2.2840     1.0079 H       
  35 H35            1.1295    -0.8198    -1.1681 H       
  36 H36            1.8563    -0.8825     2.7963 H       
  37 H37            0.0873    -1.0542     2.6997 H       
  38 H38            0.9489    -1.6625     5.1959 H       
  39 H39           -0.1941    -4.6333     8.7046 H       
  40 H40            2.2003    -6.8143     5.9292 H       
  41 H41            2.2045    -4.8819     4.4048 H       
  42 H42            2.4196    -1.4186    -1.6838 H       
  43 H43            4.2599    -1.5632    -3.3052 H       
  44 H44            7.2610     1.9083    -2.1245 H       
  45 H45            7.2844     3.6063    -0.3782 H       
  46 H46            5.4558     3.7567     1.2570 H       
  47 H47            3.5716     2.2147     1.1678 H       
  48 H48           -0.8987    -7.8860     7.3752 H       
  49 H49           -0.4900    -8.9776     8.5851 H       
@<TRIPOS>BOND
   1    1    4 1
   2    2    3 2
   3    2    4 1
   4    3    6 1
   5    4    5 1
   6    4   34 1
   7    5    6 1
   8    5   12 1
   9    6    7 1
  10    6   35 1
  11    7    8 1
  12    8    9 1
  13    8   36 1
  14    8   37 1
  15    9   10 2
  16    9   11 am
  17   11   13 1
  18   11   38 1
  19   12   23 ar
  20   12   24 ar
  21   13   14 ar
  22   13   18 ar
  23   14   15 ar
  24   14   19 1
  25   15   16 ar
  26   15   39 1
  27   16   17 ar
  28   16   20 1
  29   17   18 ar
  30   17   40 1
  31   18   41 1
  32   20   21 2
  33   20   22 2
  34   20   32 am
  35   23   27 ar
  36   23   31 ar
  37   24   25 ar
  38   24   42 1
  39   25   26 ar
  40   25   43 1
  41   26   27 ar
  42   26   33 1
  43   27   28 ar
  44   28   29 ar
  45   28   44 1
  46   29   30 ar
  47   29   45 1
  48   30   31 ar
  49   30   46 1
  50   31   47 1
  51   32   48 1
  52   32   49 1

#	End of record

