#	Name: ASD01812763
#	Creating user name:	WinNT
#	Creation time:	15. 06. 2019 19:29

#	Modifying user name:	WinNT
#	Modification time:	15. 06. 2019 19:29

#	Program:	/corina/corina34_cracker 3.40 0067  02.08.2006

@<TRIPOS>MOLECULE
ASD01812763
  57   61    0    0    0
SMALL
NO_CHARGES


@<TRIPOS>ATOM
   1 N1            -0.0158     1.3147     0.0093 N.ar    
   2 C2             0.0021    -0.0041     0.0020 C.ar    
   3 C3             1.1989    -0.7033    -0.0127 C.ar    
   4 C4             2.3829    -0.0013    -0.0202 C.ar    
   5 C5             2.3448     1.3978    -0.0128 C.ar    
   6 C6             1.0955     2.0332     0.0025 C.ar    
   7 C7             3.8373    -0.3889    -0.0363 C.3     
   8 N8             4.5955     0.8684    -0.0373 N.am    
   9 C9             3.7280     1.8961    -0.0237 C.2     
  10 C10            6.0558     0.9844    -0.0504 C.3     
  11 C11            6.5432     1.0311    -1.4757 C.ar    
  12 C12            6.6712     2.2479    -2.1207 C.ar    
  13 C13            7.1172     2.2963    -3.4260 C.ar    
  14 C14            7.4390     1.1168    -4.0936 C.ar    
  15 C15            7.3088    -0.1059    -3.4392 C.ar    
  16 C16            6.8664    -0.1426    -2.1322 C.ar    
  17 O17            1.0255     3.3856     0.0100 O.3     
  18 O18            4.0429     3.0706    -0.0212 O.2     
  19 C19           -0.2795     3.9677     0.0251 C.3     
  20 C20            7.9188     1.1628    -5.4980 C.2     
  21 C21           -0.1576     5.4928     0.0317 C.3     
  22 C22           -1.5627     6.1448    -0.0068 C.3     
  23 O23            0.4301     5.9407     1.2635 O.3     
  24 C24           -0.1730     7.1736     1.6734 C.3     
  25 C25           -1.2652     7.5248     0.6404 C.3     
  26 C26            8.2618     0.0902    -6.2683 C.2     
  27 C27            8.0967     2.3211    -6.2793 C.2     
  28 N28            8.5298     1.9543    -7.4563 N.2     
  29 N29            8.6369     0.5584    -7.4757 N.pl3   
  30 C30            9.0841    -0.2530    -8.6105 C.3     
  31 C31            8.2252     0.0664    -9.8358 C.3     
  32 F32            8.3523     1.4228   -10.1536 F       
  33 F33            8.6523    -0.7085   -10.9195 F       
  34 F34            6.8857    -0.2232    -9.5546 F       
  35 H35           -0.9309    -0.5480     0.0080 H       
  36 H36            1.2023    -1.7833    -0.0178 H       
  37 H37            4.0797    -0.9721     0.8522 H       
  38 H38            4.0624    -0.9631    -0.9351 H       
  39 H39            6.3524     1.8979     0.4651 H       
  40 H40            6.4932     0.1235     0.4552 H       
  41 H41            6.4214     3.1618    -1.6022 H       
  42 H42            7.2161     3.2469    -3.9290 H       
  43 H43            7.5569    -1.0233    -3.9522 H       
  44 H44            6.7686    -1.0898    -1.6226 H       
  45 H45           -0.8289     3.6509    -0.8614 H       
  46 H46           -0.8123     3.6419     0.9185 H       
  47 H47            0.4398     5.8277    -0.8163 H       
  48 H48           -1.9146     6.2594    -1.0321 H       
  49 H49           -2.2760     5.5765     0.5902 H       
  50 H50           -0.6213     7.0559     2.6600 H       
  51 H51            0.5788     7.9624     1.6994 H       
  52 H52           -0.8858     8.2275    -0.1015 H       
  53 H53           -2.1526     7.9213     1.1337 H       
  54 H54            8.2376    -0.9462    -5.9655 H       
  55 H55            7.9081     3.3358    -5.9610 H       
  56 H56           10.1277    -0.0274    -8.8296 H       
  57 H57            8.9850    -1.3099    -8.3629 H       
@<TRIPOS>BOND
   1    1    2 ar
   2    1    6 ar
   3    2    3 ar
   4    2   35 1
   5    3    4 ar
   6    3   36 1
   7    4    7 1
   8    4    5 ar
   9    5    6 ar
  10    5    9 1
  11    6   17 1
  12    7    8 1
  13    7   37 1
  14    7   38 1
  15    8    9 am
  16    8   10 1
  17    9   18 2
  18   10   11 1
  19   10   39 1
  20   10   40 1
  21   11   12 ar
  22   11   16 ar
  23   12   13 ar
  24   12   41 1
  25   13   14 ar
  26   13   42 1
  27   14   15 ar
  28   14   20 1
  29   15   16 ar
  30   15   43 1
  31   16   44 1
  32   17   19 1
  33   19   21 1
  34   19   45 1
  35   19   46 1
  36   20   27 1
  37   20   26 2
  38   21   23 1
  39   21   22 1
  40   21   47 1
  41   22   25 1
  42   22   48 1
  43   22   49 1
  44   23   24 1
  45   24   25 1
  46   24   50 1
  47   24   51 1
  48   25   52 1
  49   25   53 1
  50   26   29 1
  51   26   54 1
  52   27   28 2
  53   27   55 1
  54   28   29 1
  55   29   30 1
  56   30   31 1
  57   30   56 1
  58   30   57 1
  59   31   32 1
  60   31   33 1
  61   31   34 1

#	End of record

