#	Name: ASD01917055
#	Creating user name:	WinNT
#	Creation time:	15. 06. 2019 20:08

#	Modifying user name:	WinNT
#	Modification time:	15. 06. 2019 20:08

#	Program:	/corina/corina34_cracker 3.40 0067  02.08.2006

@<TRIPOS>MOLECULE
ASD01917055
  33   34    0    0    0
SMALL
NO_CHARGES


@<TRIPOS>ATOM
   1 C1            -0.0184     1.5028     0.0103 C.3     
   2 C2             0.0021    -0.0041     0.0020 C.2     
   3 N3             0.0221    -0.7751     1.0570 N.2     
   4 C4             0.0362    -2.0604     0.6790 C.2     
   5 N5             0.0250    -2.1135    -0.6349 N.2     
   6 N6            -0.0030    -0.7860    -1.0925 N.pl3   
   7 C7            -0.0243    -0.3403    -2.4879 C.3     
   8 C8            -1.4522    -0.2134    -2.9529 C.2     
   9 O9            -1.7166     0.1836    -4.2076 O.3     
  10 O10           -2.3589    -0.4691    -2.1964 O.2     
  11 C11           -3.1147     0.2834    -4.5866 C.3     
  12 C12            0.0611    -3.2302     1.5917 C.ar    
  13 C13            0.0745    -4.5224     1.0710 C.ar    
  14 C14            0.0771    -3.0393     2.9721 C.ar    
  15 C15            0.1008    -4.1296     3.8170 C.ar    
  16 C16            0.0981    -5.6074     1.9234 C.ar    
  17 C17            0.1086    -5.4131     3.2949 C.ar    
  18 F18            0.1318    -6.4781     4.1259 F       
  19 C19            0.1185    -3.9243     5.3098 C.3     
  20 H20            1.0042     1.8801     0.0026 H       
  21 H21           -0.5455     1.8639    -0.8728 H       
  22 H22           -0.5286     1.8543     0.9071 H       
  23 H23            0.4712     0.6273    -2.5678 H       
  24 H24            0.4970    -1.0680    -3.1097 H       
  25 H25           -3.5901    -0.6918    -4.4816 H       
  26 H26           -3.6159     1.0035    -3.9397 H       
  27 H27           -3.1876     0.6136    -5.6228 H       
  28 H28            0.0659    -4.6747     0.0018 H       
  29 H29            0.0714    -2.0392     3.3798 H       
  30 H30            0.1081    -6.6094     1.5206 H       
  31 H31           -0.9047    -3.8864     5.6836 H       
  32 H32            0.6481    -4.7507     5.7839 H       
  33 H33            0.6250    -2.9875     5.5418 H       
@<TRIPOS>BOND
   1    1    2 1
   2    1   20 1
   3    1   21 1
   4    1   22 1
   5    2    3 2
   6    2    6 1
   7    3    4 1
   8    4    5 2
   9    4   12 1
  10    5    6 1
  11    6    7 1
  12    7    8 1
  13    7   23 1
  14    7   24 1
  15    8    9 1
  16    8   10 2
  17    9   11 1
  18   11   25 1
  19   11   26 1
  20   11   27 1
  21   12   13 ar
  22   12   14 ar
  23   13   16 ar
  24   13   28 1
  25   14   15 ar
  26   14   29 1
  27   15   17 ar
  28   15   19 1
  29   16   17 ar
  30   16   30 1
  31   17   18 1
  32   19   31 1
  33   19   32 1
  34   19   33 1

#	End of record

