#	Name: ASD03080104
#	Creating user name:	WinNT
#	Creation time:	15. 06. 2019 20:26

#	Modifying user name:	WinNT
#	Modification time:	15. 06. 2019 20:26

#	Program:	/corina/corina34_cracker 3.40 0067  02.08.2006

@<TRIPOS>MOLECULE
ASD03080104
  28   30    0    0    0
SMALL
NO_CHARGES


@<TRIPOS>ATOM
   1 N1             0.0175    -1.1399    -0.0042 N.1     
   2 C2             0.0021    -0.0041     0.0020 C.1     
   3 C3            -0.0173     1.4278     0.0099 C.ar    
   4 C4             1.1815     2.1445     0.0023 C.ar    
   5 C5             1.1628     3.5248     0.0099 C.ar    
   6 C6            -0.0392     4.2050     0.0250 C.ar    
   7 C7            -1.2432     3.5011     0.0322 C.ar    
   8 C8            -1.2333     2.1105     0.0193 C.ar    
   9 C9            -2.5329     4.2349     0.0484 C.2     
  10 N10           -3.7498     3.6742     0.0571 N.2     
  11 C11           -4.6663     4.6057     0.0707 C.2     
  12 N12           -4.0497     5.8047     0.0712 N.pl3   
  13 N13           -2.6699     5.5430     0.0624 N.2     
  14 C14           -4.6646     7.0641     0.0837 C.ar    
  15 C15           -3.8964     8.2253     0.0825 C.ar    
  16 C16           -4.5499     9.4469     0.0952 C.ar    
  17 C17           -5.9319     9.4730     0.1085 C.ar    
  18 N18           -6.6308     8.3545     0.1097 N.ar    
  19 C19           -6.0490     7.1721     0.0916 C.ar    
  20 H20            2.1244     1.6180    -0.0092 H       
  21 H21            2.0920     4.0752     0.0043 H       
  22 H22           -0.0468     5.2850     0.0315 H       
  23 H23           -2.1634     1.5616     0.0249 H       
  24 H24           -5.7340     4.4431     0.0797 H       
  25 H25           -2.8176     8.1750     0.0723 H       
  26 H26           -3.9861    10.3680     0.0950 H       
  27 H27           -6.4465    10.4225     0.1184 H       
  28 H28           -6.6549     6.2781     0.0929 H       
@<TRIPOS>BOND
   1    1    2 3
   2    2    3 1
   3    3    4 ar
   4    3    8 ar
   5    4    5 ar
   6    4   20 1
   7    5    6 ar
   8    5   21 1
   9    6    7 ar
  10    6   22 1
  11    7    8 ar
  12    7    9 1
  13    8   23 1
  14    9   10 1
  15    9   13 2
  16   10   11 2
  17   11   12 1
  18   11   24 1
  19   12   13 1
  20   12   14 1
  21   14   15 ar
  22   14   19 ar
  23   15   16 ar
  24   15   25 1
  25   16   17 ar
  26   16   26 1
  27   17   18 ar
  28   17   27 1
  29   18   19 ar
  30   19   28 1

#	End of record

