#	Name: ASD01150382
#	Creating user name:	WinNT
#	Creation time:	15. 06. 2019 19:04

#	Modifying user name:	WinNT
#	Modification time:	15. 06. 2019 19:04

#	Program:	/corina/corina34_cracker 3.40 0067  02.08.2006

@<TRIPOS>MOLECULE
ASD01150382
  40   43    0    0    0
SMALL
NO_CHARGES


@<TRIPOS>ATOM
   1 C1             1.8986     1.3944     0.9667 C.ar    
   2 C2             1.9132     0.0137     0.9579 C.ar    
   3 C3             1.2095    -0.6812    -0.0117 C.ar    
   4 C4             0.4897     0.0068    -0.9745 C.ar    
   5 C5             0.4723     1.3874    -0.9695 C.ar    
   6 C6             1.1774     2.0864     0.0020 C.ar    
   7 N7             1.1608     3.4858     0.0092 N.am    
   8 C8            -0.0209     4.1162    -0.0787 C.2     
   9 N9            -0.0974     5.4622    -0.0761 N.am    
  10 C10            1.0481     6.1774     0.0177 C.2     
  11 C11            2.3173     5.4298     0.1118 C.2     
  12 N12            2.2765     4.1147     0.1050 N.2     
  13 O13            1.0321     7.3938     0.0239 O.2     
  14 C14           -1.3940     6.1372    -0.1732 C.3     
  15 O15           -1.0414     3.4611    -0.1628 O.2     
  16 C16           -1.9494     6.3595     1.2100 C.ar    
  17 C17           -1.6563     7.5232     1.8964 C.ar    
  18 C18           -2.1586     7.7298     3.1648 C.ar    
  19 C19           -2.9660     6.7670     3.7647 C.ar    
  20 C20           -3.2602     5.6054     3.0617 C.ar    
  21 C21           -2.7594     5.4020     1.7952 C.ar    
  22 C22            3.5671     6.1215     0.2131 C.1     
  23 N23            4.5585     6.6702     0.2935 N.1     
  24 F24            1.2255    -2.0321    -0.0187 F       
  25 O25           -3.5450     6.7572     4.9967 O.3     
  26 C26           -4.6158     5.7976     5.0084 C.3     
  27 C27           -4.1646     4.7682     3.9454 C.3     
  28 H28            2.4439     1.9358     1.7256 H       
  29 H29            2.4741    -0.5247     1.7075 H       
  30 H30           -0.0581    -0.5371    -1.7298 H       
  31 H31           -0.0888     1.9235    -1.7206 H       
  32 H32           -1.2671     7.0978    -0.6725 H       
  33 H33           -2.0839     5.5181    -0.7465 H       
  34 H34           -1.0305     8.2743     1.4376 H       
  35 H35           -1.9245     8.6415     3.6943 H       
  36 H36           -2.9914     4.4918     1.2622 H       
  37 H37           -4.7028     5.3281     5.9882 H       
  38 H38           -5.5566     6.2653     4.7182 H       
  39 H39           -5.0179     4.3903     3.3824 H       
  40 H40           -3.6105     3.9503     4.4059 H       
@<TRIPOS>BOND
   1    1    2 ar
   2    1    6 ar
   3    1   28 1
   4    2    3 ar
   5    2   29 1
   6    3    4 ar
   7    3   24 1
   8    4    5 ar
   9    4   30 1
  10    5    6 ar
  11    5   31 1
  12    6    7 1
  13    7    8 am
  14    7   12 1
  15    8    9 am
  16    8   15 2
  17    9   10 am
  18    9   14 1
  19   10   11 1
  20   10   13 2
  21   11   12 2
  22   11   22 1
  23   14   16 1
  24   14   32 1
  25   14   33 1
  26   16   17 ar
  27   16   21 ar
  28   17   18 ar
  29   17   34 1
  30   18   19 ar
  31   18   35 1
  32   19   20 ar
  33   19   25 1
  34   20   21 ar
  35   20   27 1
  36   21   36 1
  37   22   23 3
  38   25   26 1
  39   26   27 1
  40   26   37 1
  41   26   38 1
  42   27   39 1
  43   27   40 1

#	End of record

