#	Name: ASD01814465
#	Creating user name:	WinNT
#	Creation time:	15. 06. 2019 19:32

#	Modifying user name:	WinNT
#	Modification time:	15. 06. 2019 19:32

#	Program:	/corina/corina34_cracker 3.40 0067  02.08.2006

@<TRIPOS>MOLECULE
ASD01814465
  54   59    0    0    0
SMALL
NO_CHARGES


@<TRIPOS>ATOM
   1 C1            -0.0167     1.3819     0.0096 C.ar    
   2 C2             0.0021    -0.0041     0.0020 C.ar    
   3 C3             1.1970    -0.6935    -0.0126 C.ar    
   4 C4             2.3990     0.0035    -0.0203 C.ar    
   5 C5             2.3751     1.4118    -0.0130 C.ar    
   6 C6             1.1661     2.0940     0.0022 C.ar    
   7 N7             3.6102    -0.6576    -0.0345 N.pl3   
   8 N8             4.7455    -0.0610    -0.0412 N.2     
   9 C9             4.8827     1.2396    -0.0359 C.2     
  10 C10            3.6768     2.1037    -0.0217 C.2     
  11 C11            6.0122     2.1721    -0.0410 C.2     
  12 N12            5.4770     3.4118    -0.0302 N.am    
  13 N13            4.0817     3.3389    -0.0189 N.2     
  14 C14            3.5986    -2.1226    -0.0417 C.3     
  15 C15            3.5819    -2.6178    -1.4650 C.ar    
  16 C16            4.7722    -2.8574    -2.1373 C.ar    
  17 C17            4.7135    -3.3115    -3.4432 C.ar    
  18 C18            3.4681    -3.5115    -4.0351 C.ar    
  19 N19            2.3531    -3.2700    -3.3577 N.ar    
  20 C20            2.3810    -2.8430    -2.1112 C.ar    
  21 O21            7.1977     1.8864    -0.0526 O.2     
  22 C22            6.2134     4.5982    -0.0299 C.ar    
  23 C23            3.3882    -3.9979    -5.4341 C.2     
  24 C24            6.0151     5.5615     0.9563 C.ar    
  25 C25            6.7650     6.7231     0.9208 C.ar    
  26 N26            7.6582     6.9223    -0.0322 N.ar    
  27 C27            7.8732     6.0319    -0.9831 C.ar    
  28 C28            7.1705     4.8463    -1.0141 C.ar    
  29 C29            2.2452    -4.2384    -6.1409 C.2     
  30 N30            2.6061    -4.6664    -7.3662 N.pl3   
  31 N31            4.0046    -4.6941    -7.4265 N.2     
  32 C32            4.4782    -4.2902    -6.2780 C.2     
  33 C33            1.6925    -5.0393    -8.4490 C.3     
  34 C34            4.9978     5.3415     2.0461 C.3     
  35 F35            6.5817     7.6653     1.8715 F       
  36 H36           -0.9605     1.9069     0.0169 H       
  37 H37           -0.9294    -0.5505     0.0080 H       
  38 H38            1.1981    -1.7735    -0.0177 H       
  39 H39            1.1510     3.1739     0.0074 H       
  40 H40            4.4902    -2.4955     0.4623 H       
  41 H41            2.7104    -2.4815     0.4783 H       
  42 H42            5.7230    -2.6928    -1.6522 H       
  43 H43            5.6204    -3.5077    -3.9959 H       
  44 H44            1.4530    -2.6573    -1.5908 H       
  45 H45            8.6124     6.2333    -1.7444 H       
  46 H46            7.3523     4.1228    -1.7950 H       
  47 H47            1.2346    -4.1092    -5.7825 H       
  48 H48            5.5228    -4.2027    -6.0181 H       
  49 H49            1.4702    -4.1612    -9.0553 H       
  50 H50            2.1595    -5.8022    -9.0719 H       
  51 H51            0.7681    -5.4318    -8.0254 H       
  52 H52            5.4722     4.8412     2.8904 H       
  53 H53            4.5993     6.3027     2.3706 H       
  54 H54            4.1862     4.7213     1.6657 H       
@<TRIPOS>BOND
   1    1    2 ar
   2    1    6 ar
   3    1   36 1
   4    2    3 ar
   5    2   37 1
   6    3    4 ar
   7    3   38 1
   8    4    5 ar
   9    4    7 1
  10    5    6 ar
  11    5   10 1
  12    6   39 1
  13    7    8 1
  14    7   14 1
  15    8    9 2
  16    9   10 1
  17    9   11 1
  18   10   13 2
  19   11   12 am
  20   11   21 2
  21   12   13 1
  22   12   22 1
  23   14   15 1
  24   14   40 1
  25   14   41 1
  26   15   16 ar
  27   15   20 ar
  28   16   17 ar
  29   16   42 1
  30   17   18 ar
  31   17   43 1
  32   18   19 ar
  33   18   23 1
  34   19   20 ar
  35   20   44 1
  36   22   24 ar
  37   22   28 ar
  38   23   29 2
  39   23   32 1
  40   24   25 ar
  41   24   34 1
  42   25   26 ar
  43   25   35 1
  44   26   27 ar
  45   27   28 ar
  46   27   45 1
  47   28   46 1
  48   29   30 1
  49   29   47 1
  50   30   31 1
  51   30   33 1
  52   31   32 2
  53   32   48 1
  54   33   49 1
  55   33   50 1
  56   33   51 1
  57   34   52 1
  58   34   53 1
  59   34   54 1

#	End of record

