#	Name: ASD06340020
#	Creating user name:	WinNT
#	Creation time:	15. 06. 2019 21:05

#	Modifying user name:	WinNT
#	Modification time:	15. 06. 2019 21:05

#	Program:	/corina/corina34_cracker 3.40 0067  02.08.2006

@<TRIPOS>MOLECULE
ASD06340020
  26   27    0    0    0
SMALL
NO_CHARGES


@<TRIPOS>ATOM
   1 C1            -0.0162     1.3444     0.0094 C.2     
   2 N2             0.0021    -0.0041     0.0020 N.am    
   3 N3             1.3491    -0.3972    -0.0130 N.am    
   4 C4             2.0900     0.7297    -0.0140 C.2     
   5 N5             1.2553     1.7854    -0.0003 N.am    
   6 C6             1.8550    -1.7721    -0.0247 C.3     
   7 O7            -1.0112     2.0423     0.0182 O.2     
   8 C8             1.6482     3.1314     0.0024 C.ar    
   9 C9             2.0445    -2.2581     1.4136 C.3     
  10 O10            3.3042     0.7828    -0.0253 O.2     
  11 C11            0.6898     4.1356     0.0167 C.ar    
  12 C12            1.0798     5.4606     0.0193 C.ar    
  13 C13            2.4234     5.7873     0.0078 C.ar    
  14 C14            3.3803     4.7892    -0.0064 C.ar    
  15 C15            2.9964     3.4624    -0.0034 C.ar    
  16 H16           -0.7700    -0.5913     0.0065 H       
  17 H17            1.1405    -2.4177    -0.5353 H       
  18 H18            2.8109    -1.8030    -0.5476 H       
  19 H19            1.0886    -2.2272     1.9364 H       
  20 H20            2.4209    -3.2810     1.4048 H       
  21 H21            2.7590    -1.6124     1.9242 H       
  22 H22           -0.3597     3.8810     0.0254 H       
  23 H23            0.3347     6.2423     0.0301 H       
  24 H24            2.7260     6.8240     0.0095 H       
  25 H25            4.4290     5.0473    -0.0154 H       
  26 H26            3.7442     2.6832    -0.0145 H       
@<TRIPOS>BOND
   1    1    2 am
   2    1    5 am
   3    1    7 2
   4    2    3 1
   5    2   16 1
   6    3    4 am
   7    3    6 1
   8    4    5 am
   9    4   10 2
  10    5    8 1
  11    6    9 1
  12    6   17 1
  13    6   18 1
  14    8   11 ar
  15    8   15 ar
  16    9   19 1
  17    9   20 1
  18    9   21 1
  19   11   12 ar
  20   11   22 1
  21   12   13 ar
  22   12   23 1
  23   13   14 ar
  24   13   24 1
  25   14   15 ar
  26   14   25 1
  27   15   26 1

#	End of record

