#	Name: ASD02038791
#	Creating user name:	WinNT
#	Creation time:	15. 06. 2019 20:17

#	Modifying user name:	WinNT
#	Modification time:	15. 06. 2019 20:17

#	Program:	/corina/corina34_cracker 3.40 0067  02.08.2006

@<TRIPOS>MOLECULE
ASD02038791
  48   51    0    0    0
SMALL
NO_CHARGES


@<TRIPOS>ATOM
   1 C1            -1.2836    -0.8620     0.4759 C.2     
   2 C2            -0.0664    -0.0396     0.3067 C.2     
   3 N3             1.1331    -0.6347     0.1536 N.am    
   4 C4             1.2448    -2.0924     0.2473 C.3     
   5 C5             1.2165    -2.6884    -1.1365 C.ar    
   6 C6             2.3252     0.1761    -0.1065 C.3     
   7 O7            -0.1477     1.1733     0.3056 O.2     
   8 N8            -1.3319    -2.2060     0.5150 N.2     
   9 C9            -2.5854    -2.5452     0.6772 C.2     
  10 N10           -3.3095    -1.4123     0.7382 N.pl3   
  11 N11           -2.5097    -0.4090     0.6205 N.2     
  12 C12            2.3877    -2.9982    -1.7572 C.ar    
  13 C13            2.1061     1.0201    -1.3659 C.3     
  14 C14            3.3242     1.9211    -1.5852 C.3     
  15 O15            3.5232     2.7401    -0.4311 O.3     
  16 C16            3.7798     2.0062     0.7679 C.3     
  17 C17            2.5800     1.1086     1.0818 C.3     
  18 C18           -0.0084    -2.9194    -1.7593 C.ar    
  19 C19           -0.0692    -3.4563    -3.0087 C.ar    
  20 C20            1.1190    -3.7837    -3.6832 C.ar    
  21 C21            2.3649    -3.5540    -3.0474 C.ar    
  22 C22           -4.7617    -1.3332     0.9145 C.3     
  23 C23            1.0964    -4.3393    -4.9741 C.ar    
  24 C24            2.2676    -4.6434    -5.5968 C.ar    
  25 C25            3.4928    -4.4125    -4.9738 C.ar    
  26 C26            3.5535    -3.8812    -3.7223 C.ar    
  27 H27            2.1830    -2.3542     0.7365 H       
  28 H28            0.4102    -2.4842     0.8288 H       
  29 H29            3.1860    -0.4769    -0.2504 H       
  30 H30           -2.9695    -3.5520     0.7489 H       
  31 H31            3.3296    -2.8174    -1.2606 H       
  32 H32            1.9789     0.3636    -2.2267 H       
  33 H33            1.2153     1.6357    -1.2414 H       
  34 H34            4.2077     1.3043    -1.7499 H       
  35 H35            3.1556     2.5548    -2.4559 H       
  36 H36            4.6692     1.3905     0.6340 H       
  37 H37            3.9393     2.7012     1.5924 H       
  38 H38            1.6987     1.7260     1.2557 H       
  39 H39            2.7917     0.5154     1.9714 H       
  40 H40           -0.9232    -2.6689    -1.2429 H       
  41 H41           -1.0258    -3.6301    -3.4789 H       
  42 H42           -4.9967    -1.2884     1.9779 H       
  43 H43           -5.1393    -0.4377     0.4209 H       
  44 H44           -5.2295    -2.2145     0.4758 H       
  45 H45            0.1545    -4.5241    -5.4690 H       
  46 H46            2.2473    -5.0705    -6.5885 H       
  47 H47            4.4077    -4.6633    -5.4900 H       
  48 H48            4.5102    -3.7074    -3.2522 H       
@<TRIPOS>BOND
   1    1    2 1
   2    1    8 1
   3    1   11 2
   4    2    3 am
   5    2    7 2
   6    3    4 1
   7    3    6 1
   8    4    5 1
   9    4   27 1
  10    4   28 1
  11    5   12 ar
  12    5   18 ar
  13    6   13 1
  14    6   17 1
  15    6   29 1
  16    8    9 2
  17    9   10 1
  18    9   30 1
  19   10   11 1
  20   10   22 1
  21   12   21 ar
  22   12   31 1
  23   13   14 1
  24   13   32 1
  25   13   33 1
  26   14   15 1
  27   14   34 1
  28   14   35 1
  29   15   16 1
  30   16   17 1
  31   16   36 1
  32   16   37 1
  33   17   38 1
  34   17   39 1
  35   18   19 ar
  36   18   40 1
  37   19   20 ar
  38   19   41 1
  39   20   21 ar
  40   20   23 ar
  41   21   26 ar
  42   22   42 1
  43   22   43 1
  44   22   44 1
  45   23   24 ar
  46   23   45 1
  47   24   25 ar
  48   24   46 1
  49   25   26 ar
  50   25   47 1
  51   26   48 1

#	End of record

