#	Name: ASD02810009
#	Creating user name:	WinNT
#	Creation time:	15. 06. 2019 20:26

#	Modifying user name:	WinNT
#	Modification time:	15. 06. 2019 20:26

#	Program:	/corina/corina34_cracker 3.40 0067  02.08.2006

@<TRIPOS>MOLECULE
ASD02810009
 139  140    0    0    0
SMALL
NO_CHARGES


@<TRIPOS>ATOM
   1 C1             5.4707    -1.1524     2.1686 C.3     
   2 C2            -0.9856    -1.4322    29.8981 C.3     
   3 C3             7.7039     0.7465     4.3464 C.3     
   4 C4             6.5009    -0.1735     4.1290 C.3     
   5 C5             5.4718     0.0838     5.1994 C.2     
   6 N6             5.9125     0.0933     2.8097 N.3     
   7 O7             4.5318     0.8162     4.9734 O.2     
   8 C8             8.8000     0.4001     3.3368 C.3     
   9 C9             9.9849     1.3063     3.5509 C.2     
  10 O10            9.9555     2.1465     4.4250 O.2     
  11 N11           11.0772     1.1830     2.7711 N.am    
  12 C12            4.5506    -0.3210     7.4186 C.3     
  13 C13            5.1877    -0.0989     8.7661 C.2     
  14 N14            5.5959    -0.5000     6.4078 N.am    
  15 O15            6.3958    -0.0908     8.8718 O.2     
  16 C16            3.3998    -2.5282     5.1728 C.ar    
  17 C17            2.7052    -2.6530     3.9842 C.ar    
  18 C18            1.5253    -1.9576     3.7968 C.ar    
  19 C19            1.0398    -1.1377     4.7983 C.ar    
  20 C20            1.7346    -1.0125     5.9867 C.ar    
  21 C21            2.9145    -1.7079     6.1741 C.ar    
  22 C22            3.6715    -1.5722     7.4701 C.3     
  23 C23            5.3750     1.7891    11.3286 C.3     
  24 C24            5.0341     0.3067    11.1638 C.3     
  25 C25            4.0747    -0.1116    12.2481 C.2     
  26 N26            4.4148     0.0908     9.8538 N.am    
  27 O27            2.9813    -0.5473    11.9554 O.2     
  28 C28            6.4267     2.1777    10.3216 C.ar    
  29 C29            6.0502     2.6404     9.0742 C.ar    
  30 C30            7.0123     2.9972     8.1493 C.ar    
  31 C31            8.3572     2.8909     8.4729 C.ar    
  32 C32            8.7323     2.4264     9.7252 C.ar    
  33 C33            7.7663     2.0762    10.6486 C.ar    
  34 O34            9.3055     3.2409     7.5646 O.3     
  35 C35            3.6297    -1.9131    14.8409 C.3     
  36 C36            3.4991    -0.4083    14.5971 C.3     
  37 C37            3.8208     0.3362    15.8672 C.2     
  38 N38            4.4317    -0.0017    13.5430 N.am    
  39 O39            4.8063     1.0409    15.9240 O.2     
  40 C40            3.1772    -2.6732    13.5926 C.3     
  41 C41            5.0895    -2.2556    15.1453 C.3     
  42 C42            2.9101     2.3154    18.1952 C.3     
  43 C43            3.3796     0.8592    18.2058 C.3     
  44 C44            2.7221     0.1277    19.3475 C.2     
  45 N45            3.0135     0.2189    16.9400 N.am    
  46 O46            1.9265    -0.7594    19.1213 O.2     
  47 C47            3.6563     3.0839    17.1027 C.3     
  48 C48            1.4065     2.3644    17.9170 C.3     
  49 C49            3.5051    -1.2226    22.3274 C.3     
  50 C50            2.4389    -0.3028    21.7290 C.3     
  51 C51            1.9445     0.6486    22.7880 C.2     
  52 N52            3.0180     0.4592    20.6199 N.am    
  53 O53            2.0640     1.8453    22.6317 O.2     
  54 C54            4.0734    -2.1037    21.2449 C.2     
  55 N55            5.0294    -3.0058    21.5428 N.am    
  56 O56            3.6704    -2.0010    20.1056 O.2     
  57 C57           -0.5260     1.5585    24.5866 C.3     
  58 C58            0.8888     1.0944    24.9383 C.3     
  59 C59            0.8706     0.3949    26.2731 C.2     
  60 N60            1.3694     0.1695    23.9089 N.am    
  61 O61            1.2244    -0.7622    26.3562 O.2     
  62 O62           -1.4186     0.4436    24.6335 O.3     
  63 C63            0.5606     1.4110    29.7920 C.3     
  64 C64            0.4437     0.3753    28.6719 C.3     
  65 C65           -0.8488    -0.3846    28.8233 C.2     
  66 N66            0.4613     1.0552    27.3744 N.am    
  67 O67           -1.7750    -0.1542    28.0834 O.2     
  68 C68            1.9263     2.0961    29.7126 C.3     
  69 C69            2.0415     3.1162    30.8159 C.2     
  70 O70            1.1253     3.2785    31.5866 O.2     
  71 O71            3.1619     3.8444    30.9424 O.3     
  72 H72            4.8123    -1.6960     2.8462 H       
  73 H73            4.9329    -0.9174     1.2501 H       
  74 H74            6.3390    -1.7680     1.9339 H       
  75 H75           -0.8344    -0.9725    30.8748 H       
  76 H76           -1.9825    -1.8707    29.8532 H       
  77 H77           -0.2388    -2.2109    29.7435 H       
  78 H78            7.3977     1.7836     4.2088 H       
  79 H79            8.0862     0.6118     5.3582 H       
  80 H80            6.8249    -1.2131     4.1788 H       
  81 H81            6.5600     0.5939     2.2195 H       
  82 H82            9.1061    -0.6370     3.4744 H       
  83 H83            8.4177     0.5348     2.3249 H       
  84 H84           11.1007     0.5110     2.0720 H       
  85 H85           11.8398     1.7663     2.9089 H       
  86 H86            3.9385     0.5427     7.1592 H       
  87 H87            6.3773    -1.0385     6.6083 H       
  88 H88            4.3193    -3.0750     5.3209 H       
  89 H89            3.0846    -3.2936     3.2018 H       
  90 H90            0.9830    -2.0546     2.8679 H       
  91 H91            0.1183    -0.5938     4.6516 H       
  92 H92            1.3554    -0.3717     6.7690 H       
  93 H93            4.2988    -2.4512     7.6182 H       
  94 H94            2.9654    -1.4864     8.2960 H       
  95 H95            4.4788     2.3882    11.1675 H       
  96 H96            5.7535     1.9651    12.3355 H       
  97 H97            5.9458    -0.2861    11.2368 H       
  98 H98            3.4485     0.0843     9.7693 H       
  99 H99            5.0032     2.7226     8.8226 H       
 100 H100           6.7178     3.3582     7.1750 H       
 101 H101           9.7786     2.3428     9.9795 H       
 102 H102           8.0577     1.7187    11.6251 H       
 103 H103           9.5709     4.1696     7.6111 H       
 104 H104           3.0053    -2.1996    15.6871 H       
 105 H105           2.4794    -0.1774    14.2889 H       
 106 H106           5.3062     0.3468    13.7771 H       
 107 H107           3.1550    -3.7419    13.8061 H       
 108 H108           2.1801    -2.3393    13.3055 H       
 109 H109           3.8740    -2.4800    12.7770 H       
 110 H110           5.7140    -1.9691    14.2991 H       
 111 H111           5.4120    -1.7141    16.0346 H       
 112 H112           5.1826    -3.3276    15.3190 H       
 113 H113           3.1154     2.7703    19.1643 H       
 114 H114           4.4622     0.8274    18.3293 H       
 115 H115           2.1900    -0.2895    16.8741 H       
 116 H116           3.3358     4.1257    17.1079 H       
 117 H117           4.7288     3.0327    17.2904 H       
 118 H118           3.4359     2.6407    16.1316 H       
 119 H119           1.2013     1.9095    16.9479 H       
 120 H120           0.8749     1.8169    18.6953 H       
 121 H121           1.0720     3.4018    17.9094 H       
 122 H122           4.3029    -0.6199    22.7614 H       
 123 H123           3.0559    -1.8433    23.1026 H       
 124 H124           1.6061    -0.9026    21.3620 H       
 125 H125           3.6144     1.2024    20.8012 H       
 126 H126           5.3516    -3.0879    22.4540 H       
 127 H127           5.3951    -3.5729    20.8460 H       
 128 H128          -0.8495     2.3134    25.3033 H       
 129 H129          -0.5297     1.9849    23.5834 H       
 130 H130           1.5522     1.9577    24.9895 H       
 131 H131           1.2738    -0.7876    24.0339 H       
 132 H132          -2.3357     0.6647    24.4207 H       
 133 H133          -0.2268     2.1564    29.6813 H       
 134 H134           0.4585     0.9152    30.7574 H       
 135 H135           1.2822    -0.3187    28.7298 H       
 136 H136           0.1784     1.9807    27.3079 H       
 137 H137           2.7138     1.3507    29.8234 H       
 138 H138           2.0285     2.5919    28.7473 H       
 139 H139           3.1892     4.4862    31.6652 H       
@<TRIPOS>BOND
   1    1    6 1
   2    1   72 1
   3    1   73 1
   4    1   74 1
   5    2   65 1
   6    2   75 1
   7    2   76 1
   8    2   77 1
   9    3    8 1
  10    3    4 1
  11    3   78 1
  12    3   79 1
  13    4    6 1
  14    4    5 1
  15    4   80 1
  16    5    7 2
  17    5   14 am
  18    6   81 1
  19    8    9 1
  20    8   82 1
  21    8   83 1
  22    9   10 2
  23    9   11 am
  24   11   84 1
  25   11   85 1
  26   12   13 1
  27   12   14 1
  28   12   22 1
  29   12   86 1
  30   13   15 2
  31   13   26 am
  32   14   87 1
  33   16   17 ar
  34   16   21 ar
  35   16   88 1
  36   17   18 ar
  37   17   89 1
  38   18   19 ar
  39   18   90 1
  40   19   20 ar
  41   19   91 1
  42   20   21 ar
  43   20   92 1
  44   21   22 1
  45   22   93 1
  46   22   94 1
  47   23   28 1
  48   23   24 1
  49   23   95 1
  50   23   96 1
  51   24   25 1
  52   24   26 1
  53   24   97 1
  54   25   27 2
  55   25   38 am
  56   26   98 1
  57   28   29 ar
  58   28   33 ar
  59   29   30 ar
  60   29   99 1
  61   30   31 ar
  62   30  100 1
  63   31   32 ar
  64   31   34 1
  65   32   33 ar
  66   32  101 1
  67   33  102 1
  68   34  103 1
  69   35   40 1
  70   35   41 1
  71   35   36 1
  72   35  104 1
  73   36   38 1
  74   36   37 1
  75   36  105 1
  76   37   39 2
  77   37   45 am
  78   38  106 1
  79   40  107 1
  80   40  108 1
  81   40  109 1
  82   41  110 1
  83   41  111 1
  84   41  112 1
  85   42   47 1
  86   42   48 1
  87   42   43 1
  88   42  113 1
  89   43   45 1
  90   43   44 1
  91   43  114 1
  92   44   46 2
  93   44   52 am
  94   45  115 1
  95   47  116 1
  96   47  117 1
  97   47  118 1
  98   48  119 1
  99   48  120 1
 100   48  121 1
 101   49   54 1
 102   49   50 1
 103   49  122 1
 104   49  123 1
 105   50   52 1
 106   50   51 1
 107   50  124 1
 108   51   53 2
 109   51   60 am
 110   52  125 1
 111   54   55 am
 112   54   56 2
 113   55  126 1
 114   55  127 1
 115   57   62 1
 116   57   58 1
 117   57  128 1
 118   57  129 1
 119   58   60 1
 120   58   59 1
 121   58  130 1
 122   59   61 2
 123   59   66 am
 124   60  131 1
 125   62  132 1
 126   63   68 1
 127   63   64 1
 128   63  133 1
 129   63  134 1
 130   64   66 1
 131   64   65 1
 132   64  135 1
 133   65   67 2
 134   66  136 1
 135   68   69 1
 136   68  137 1
 137   68  138 1
 138   69   70 2
 139   69   71 1
 140   71  139 1

#	End of record

