#	Name: ASD07930593
#	Creating user name:	WinNT
#	Creation time:	15. 06. 2019 21:12

#	Modifying user name:	WinNT
#	Modification time:	15. 06. 2019 21:12

#	Program:	/corina/corina34_cracker 3.40 0067  02.08.2006

@<TRIPOS>MOLECULE
ASD07930593
  47   49    0    0    0
SMALL
NO_CHARGES


@<TRIPOS>ATOM
   1 C1             1.3658     0.7515    -1.5507 C.3     
   2 N2             2.3118    -2.0775    -1.4397 N.2     
   3 N3             0.0343    -2.5842    -1.3063 N.pl3   
   4 C4            -0.9002    -2.7447    -0.1874 C.3     
   5 C5            -1.5466    -1.3893     0.1306 C.3     
   6 S6            -0.2200    -0.1896     0.4701 S.o2    
   7 N7             0.8003    -0.3926    -0.8315 N.am    
   8 C8             1.0877    -1.6990    -1.2008 C.2     
   9 C9            -0.1431    -3.2507     1.0421 C.3     
  10 C10           -1.9704    -3.7366    -0.5640 C.ar    
  11 C11           -1.6878    -4.7510    -1.4602 C.ar    
  12 C12           -2.6756    -5.6665    -1.8070 C.ar    
  13 C13           -3.9434    -5.5598    -1.2527 C.ar    
  14 C14           -4.2221    -4.5434    -0.3564 C.ar    
  15 C15           -3.2344    -3.6350    -0.0080 C.ar    
  16 O16           -0.6999     1.1420     0.3439 O.2     
  17 O17            0.5497    -0.5935     1.5942 O.2     
  18 F18           -3.5083    -2.6435     0.8678 F       
  19 N19           -2.3915    -6.6943    -2.7149 N.am    
  20 C20           -3.3870    -7.2588    -3.4269 C.2     
  21 O21           -4.5150    -6.8112    -3.3552 O.2     
  22 C22           -3.1070    -8.4226    -4.2952 C.ar    
  23 C23           -4.1385    -9.0074    -5.0328 C.ar    
  24 C24           -1.5492   -10.0169    -5.1904 C.ar    
  25 C25           -1.8102    -8.9331    -4.3818 C.ar    
  26 C26           -3.8781   -10.0915    -5.8412 C.ar    
  27 C27           -2.5820   -10.6059    -5.9235 C.ar    
  28 C28           -2.3111   -11.7332    -6.7640 C.1     
  29 F29           -0.4529    -4.8525    -1.9988 F       
  30 F30           -5.4561    -4.4390     0.1836 F       
  31 N31           -2.0961   -12.6274    -7.4308 N.1     
  32 H32            2.3148     1.0343    -1.0949 H       
  33 H33            1.5302     0.4800    -2.5935 H       
  34 H34            0.6733     1.5917    -1.4988 H       
  35 H35            3.0402    -1.4419    -1.3604 H       
  36 H36           -0.0855    -3.1023    -2.1175 H       
  37 H37           -2.1357    -1.0539    -0.7230 H       
  38 H38           -2.1887    -1.4848     1.0062 H       
  39 H39            0.6912    -2.5825     1.2555 H       
  40 H40           -0.8167    -3.2759     1.8987 H       
  41 H41            0.2356    -4.2542     0.8481 H       
  42 H42           -4.7120    -6.2695    -1.5210 H       
  43 H43           -1.4783    -6.9999    -2.8313 H       
  44 H44           -5.1406    -8.6097    -4.9691 H       
  45 H45           -0.5461   -10.4115    -5.2576 H       
  46 H46           -1.0116    -8.4777    -3.8149 H       
  47 H47           -4.6760   -10.5442    -6.4111 H       
@<TRIPOS>BOND
   1    1    7 1
   2    1   32 1
   3    1   33 1
   4    1   34 1
   5    2    8 2
   6    2   35 1
   7    3    4 1
   8    3    8 1
   9    3   36 1
  10    4    5 1
  11    4    9 1
  12    4   10 1
  13    5    6 1
  14    5   37 1
  15    5   38 1
  16    6    7 am
  17    6   16 2
  18    6   17 2
  19    7    8 1
  20    9   39 1
  21    9   40 1
  22    9   41 1
  23   10   11 ar
  24   10   15 ar
  25   11   12 ar
  26   11   29 1
  27   12   13 ar
  28   12   19 1
  29   13   14 ar
  30   13   42 1
  31   14   15 ar
  32   14   30 1
  33   15   18 1
  34   19   20 am
  35   19   43 1
  36   20   21 2
  37   20   22 1
  38   22   23 ar
  39   22   25 ar
  40   23   26 ar
  41   23   44 1
  42   24   25 ar
  43   24   27 ar
  44   24   45 1
  45   25   46 1
  46   26   27 ar
  47   26   47 1
  48   27   28 1
  49   28   31 3

#	End of record

