#	Name: ASD01351011
#	Creating user name:	WinNT
#	Creation time:	15. 06. 2019 19:16

#	Modifying user name:	WinNT
#	Modification time:	15. 06. 2019 19:16

#	Program:	/corina/corina34_cracker 3.40 0067  02.08.2006

@<TRIPOS>MOLECULE
ASD01351011
  61   64    0    0    0
SMALL
NO_CHARGES


@<TRIPOS>ATOM
   1 C1            -0.0162     1.3436     0.0094 C.2     
   2 N2             0.0021    -0.0041     0.0020 N.am    
   3 C3             1.2697    -0.7529    -0.0141 C.3     
   4 C4            -1.2401    -0.7842     0.0159 C.3     
   5 C5             1.2869    -1.7160    -1.2028 C.3     
   6 C6             2.4450     0.2210    -0.1201 C.3     
   7 C7             1.3667    -1.5400     1.2919 C.3     
   8 C8            -1.1156    -1.9191     1.0013 C.ar    
   9 C9             3.7581    -0.5641    -0.1363 C.3     
  10 C10            0.0792    -2.2676     1.5763 C.ar    
  11 C11           -2.2661    -2.6251     1.3242 C.ar    
  12 O12            4.8734     0.3601    -0.2368 O.3     
  13 C13            0.1245    -3.3325     2.4676 C.ar    
  14 C14           -2.2147    -3.6798     2.2127 C.ar    
  15 C15           -1.0204    -4.0359     2.7796 C.ar    
  16 C16            6.1054    -0.1721    -0.2631 C.2     
  17 C17            9.0832    -0.5650    -1.5757 C.ar    
  18 O18            6.2471    -1.3706    -0.2041 O.2     
  19 C19           -0.9648     4.2521    -1.1674 C.ar    
  20 O20            1.0258     1.9642     0.0028 O.2     
  21 C21            8.5630    -0.1147    -0.3768 C.ar    
  22 C22            9.1908    -0.4343     0.8126 C.ar    
  23 C23           10.3386    -1.2047     0.8030 C.ar    
  24 C24           10.8583    -1.6558    -0.3958 C.ar    
  25 C25           10.2300    -1.3369    -1.5851 C.ar    
  26 C26           -1.0761     3.5644     0.0265 C.ar    
  27 C27           -0.9539     4.2392     1.2268 C.ar    
  28 C28           -0.7197     5.6016     1.2331 C.ar    
  29 C29           -0.6074     6.2891     0.0391 C.ar    
  30 C30           -0.7288     5.6142    -1.1611 C.ar    
  31 C31            7.3118     0.7252    -0.3663 C.3     
  32 C32           -1.3314     2.0792     0.0197 C.3     
  33 H33           -2.0697    -0.1402     0.3073 H       
  34 H34           -1.4266    -1.1870    -0.9796 H       
  35 H35            1.1902    -1.1509    -2.1298 H       
  36 H36            2.2271    -2.2676    -1.2100 H       
  37 H37            0.4558    -2.4158    -1.1155 H       
  38 H38            2.3560     0.7991    -1.0398 H       
  39 H39            2.4358     0.8960     0.7357 H       
  40 H40            2.1780    -2.2638     1.2148 H       
  41 H41            1.5779    -0.8518     2.1103 H       
  42 H42            3.8471    -1.1423     0.7835 H       
  43 H43            3.7673    -1.2391    -0.9920 H       
  44 H44           -3.2089    -2.3467     0.8771 H       
  45 H45            1.0645    -3.6122     2.9199 H       
  46 H46           -3.1137    -4.2247     2.4602 H       
  47 H47           -0.9758    -4.8627     3.4730 H       
  48 H48            8.5902    -0.3190    -2.5046 H       
  49 H49           -1.0559     3.7242    -2.1052 H       
  50 H50            8.7848    -0.0819     1.7493 H       
  51 H51           10.8295    -1.4538     1.7322 H       
  52 H52           11.7552    -2.2573    -0.4033 H       
  53 H53           10.6358    -1.6896    -2.5218 H       
  54 H54           -1.0416     3.7020     2.1596 H       
  55 H55           -0.6249     6.1289     2.1708 H       
  56 H56           -0.4249     7.3535     0.0440 H       
  57 H57           -0.6407     6.1513    -2.0940 H       
  58 H58            7.2556     1.3049    -1.2876 H       
  59 H59            7.3354     1.4018     0.4879 H       
  60 H60           -1.9035     1.8130    -0.8691 H       
  61 H61           -1.8951     1.8033     0.9108 H       
@<TRIPOS>BOND
   1    1    2 am
   2    1   20 2
   3    1   32 1
   4    2    3 1
   5    2    4 1
   6    3    6 1
   7    3    7 1
   8    3    5 1
   9    4    8 1
  10    4   33 1
  11    4   34 1
  12    5   35 1
  13    5   36 1
  14    5   37 1
  15    6    9 1
  16    6   38 1
  17    6   39 1
  18    7   10 1
  19    7   40 1
  20    7   41 1
  21    8   10 ar
  22    8   11 ar
  23    9   12 1
  24    9   42 1
  25    9   43 1
  26   10   13 ar
  27   11   14 ar
  28   11   44 1
  29   12   16 1
  30   13   15 ar
  31   13   45 1
  32   14   15 ar
  33   14   46 1
  34   15   47 1
  35   16   18 2
  36   16   31 1
  37   17   21 ar
  38   17   25 ar
  39   17   48 1
  40   19   26 ar
  41   19   30 ar
  42   19   49 1
  43   21   22 ar
  44   21   31 1
  45   22   23 ar
  46   22   50 1
  47   23   24 ar
  48   23   51 1
  49   24   25 ar
  50   24   52 1
  51   25   53 1
  52   26   27 ar
  53   26   32 1
  54   27   28 ar
  55   27   54 1
  56   28   29 ar
  57   28   55 1
  58   29   30 ar
  59   29   56 1
  60   30   57 1
  61   31   58 1
  62   31   59 1
  63   32   60 1
  64   32   61 1

#	End of record

