#	Name: ASD03731305
#	Creating user name:	WinNT
#	Creation time:	15. 06. 2019 20:45

#	Modifying user name:	WinNT
#	Modification time:	15. 06. 2019 20:45

#	Program:	/corina/corina34_cracker 3.40 0067  02.08.2006

@<TRIPOS>MOLECULE
ASD03731305
  63   69    0    0    0
SMALL
NO_CHARGES


@<TRIPOS>ATOM
   1 C1            -0.0182     1.4735     0.0148 C.2     
   2 C2             0.0014    -0.0045     0.0118 C.ar    
   3 C3             1.2177    -0.6894     0.0013 C.ar    
   4 C4             1.2289    -2.0689    -0.0015 C.ar    
   5 C5             0.0382    -2.7735     0.0055 C.ar    
   6 C6            -1.1708    -2.1007     0.0154 C.ar    
   7 C7            -1.1962    -0.7215     0.0251 C.ar    
   8 O8             1.0265     2.0953     0.0082 O.2     
   9 N9            -1.1942     2.1319     0.0193 N.am    
  10 C10            0.0582    -4.2803     0.0019 C.3     
  11 O11           -2.0729    -1.5136     6.2863 O.3     
  12 C12           -2.3038    -1.5942     7.7052 C.3     
  13 O13           -2.8028    -2.9312     7.8954 O.3     
  14 C14           -2.2751    -3.6675     6.8735 C.ar    
  15 C15           -1.8273    -2.7952     5.8840 C.ar    
  16 C16           -2.1373    -5.0336     6.7053 C.ar    
  17 C17           -1.5545    -5.5466     5.5504 C.ar    
  18 C18           -1.1186    -4.6656     4.5653 C.ar    
  19 C19           -1.2489    -3.3027     4.7327 C.ar    
  20 O20           -1.3110    -6.8415     5.1979 O.3     
  21 C21           -0.5702    -5.5104     3.4466 C.3     
  22 C22           -1.0962    -6.9142     3.7752 C.3     
  23 N23            0.0747    -4.7718     1.3819 N.am    
  24 C24           -1.0351    -5.0396     2.0986 C.2     
  25 C25            0.9281    -5.4742     3.3856 C.ar    
  26 C26            1.9246    -5.7831     4.2843 C.ar    
  27 C27            3.2524    -5.6432     3.9218 C.ar    
  28 C28            3.5763    -5.1917     2.6553 C.ar    
  29 C29            2.5817    -4.8801     1.7518 C.ar    
  30 C30            1.2424    -5.0184     2.1079 C.ar    
  31 O31           -2.1839    -4.9234     1.7274 O.2     
  32 C32           -1.2149     3.5275     0.1327 C.ar    
  33 C33           -2.1833     4.2645    -0.5363 C.ar    
  34 C34           -2.2031     5.6406    -0.4240 C.ar    
  35 C35           -1.2556     6.2869     0.3564 C.ar    
  36 C36           -0.2879     5.5513     1.0250 C.ar    
  37 C37           -0.2706     4.1747     0.9187 C.ar    
  38 O38           -1.2752     7.6420     0.4658 O.3     
  39 C39           -0.2700     8.2413     1.2858 C.3     
  40 H40            2.1479    -0.1406    -0.0049 H       
  41 H41            2.1693    -2.6000    -0.0096 H       
  42 H42           -2.0968    -2.6567     0.0205 H       
  43 H43           -2.1405    -0.1975     0.0377 H       
  44 H44           -2.0262     1.6390    -0.0560 H       
  45 H45           -0.8306    -4.6543    -0.5064 H       
  46 H46            0.9491    -4.6306    -0.5193 H       
  47 H47           -1.3726    -1.4514     8.2535 H       
  48 H48           -3.0478    -0.8601     8.0145 H       
  49 H49           -2.4844    -5.7066     7.4754 H       
  50 H50           -0.8993    -2.6297     3.9638 H       
  51 H51           -0.3514    -7.6728     3.5345 H       
  52 H52           -2.0322    -7.1093     3.2518 H       
  53 H53            1.6694    -6.1353     5.2729 H       
  54 H54            4.0343    -5.8862     4.6262 H       
  55 H55            4.6128    -5.0824     2.3724 H       
  56 H56            2.8425    -4.5277     0.7648 H       
  57 H57           -2.9205     3.7615    -1.1445 H       
  58 H58           -2.9561     6.2139    -0.9442 H       
  59 H59            0.4495     6.0552     1.6321 H       
  60 H60            0.4798     3.6018     1.4431 H       
  61 H61           -0.3596     7.8640     2.3045 H       
  62 H62            0.7156     7.9935     0.8919 H       
  63 H63           -0.3994     9.3236     1.2866 H       
@<TRIPOS>BOND
   1    1    2 1
   2    1    8 2
   3    1    9 am
   4    2    3 ar
   5    2    7 ar
   6    3    4 ar
   7    3   40 1
   8    4    5 ar
   9    4   41 1
  10    5    6 ar
  11    5   10 1
  12    6    7 ar
  13    6   42 1
  14    7   43 1
  15    9   32 1
  16    9   44 1
  17   10   23 1
  18   10   45 1
  19   10   46 1
  20   11   12 1
  21   11   15 1
  22   12   13 1
  23   12   47 1
  24   12   48 1
  25   13   14 1
  26   14   15 ar
  27   14   16 ar
  28   15   19 ar
  29   16   17 ar
  30   16   49 1
  31   17   18 ar
  32   17   20 1
  33   18   19 ar
  34   18   21 1
  35   19   50 1
  36   20   22 1
  37   21   22 1
  38   21   24 1
  39   21   25 1
  40   22   51 1
  41   22   52 1
  42   23   24 am
  43   23   30 1
  44   24   31 2
  45   25   26 ar
  46   25   30 ar
  47   26   27 ar
  48   26   53 1
  49   27   28 ar
  50   27   54 1
  51   28   29 ar
  52   28   55 1
  53   29   30 ar
  54   29   56 1
  55   32   33 ar
  56   32   37 ar
  57   33   34 ar
  58   33   57 1
  59   34   35 ar
  60   34   58 1
  61   35   36 ar
  62   35   38 1
  63   36   37 ar
  64   36   59 1
  65   37   60 1
  66   38   39 1
  67   39   61 1
  68   39   62 1
  69   39   63 1

#	End of record

