#	Name: ASD03200089
#	Creating user name:	WinNT
#	Creation time:	15. 06. 2019 20:34

#	Modifying user name:	WinNT
#	Modification time:	15. 06. 2019 20:34

#	Program:	/corina/corina34_cracker 3.40 0067  02.08.2006

@<TRIPOS>MOLECULE
ASD03200089
  27   27    0    0    0
SMALL
NO_CHARGES


@<TRIPOS>ATOM
   1 C1            -0.0127     1.0858     0.0080 C.3     
   2 C2            -0.7527     1.5927    -1.2315 C.3     
   3 C3            -3.7233    -0.7027    -1.6253 C.ar    
   4 C4            -2.4282    -0.2220    -1.6346 C.ar    
   5 C5            -4.4978     1.4137    -0.7956 C.ar    
   6 C6            -3.1997     1.8862    -0.7968 C.ar    
   7 C7            -2.1665     1.0710    -1.2208 C.ar    
   8 C8            -4.7624     0.1149    -1.2053 C.ar    
   9 C9            -6.2365    -1.6992    -1.6395 C.3     
  10 C10           -7.7256    -2.0437    -1.5707 C.3     
  11 O11           -6.0386    -0.3523    -1.2050 O.3     
  12 N12           -0.0651     1.1189    -2.4401 N.3     
  13 H13            0.0021    -0.0041     0.0020 H       
  14 H14            1.0099     1.4631     0.0003 H       
  15 H15           -0.5229     1.4373     0.9048 H       
  16 H16           -0.7675     2.6825    -1.2255 H       
  17 H17           -3.9273    -1.7127    -1.9490 H       
  18 H18           -1.6194    -0.8569    -1.9651 H       
  19 H19           -5.3050     2.0520    -0.4678 H       
  20 H20           -2.9932     2.8971    -0.4779 H       
  21 H21           -5.6769    -2.3754    -0.9932 H       
  22 H22           -5.8861    -1.8049    -2.6662 H       
  23 H23           -8.0759    -1.9379    -0.5440 H       
  24 H24           -8.2852    -1.3675    -2.2171 H       
  25 H25           -7.8765    -3.0710    -1.9022 H       
  26 H26           -0.5702     1.3861    -3.2717 H       
  27 H27            0.8856     1.4555    -2.4707 H       
@<TRIPOS>BOND
   1    1   13 1
   2    1   14 1
   3    1   15 1
   4    1    2 1
   5    2   16 1
   6    2    7 1
   7    2   12 1
   8    3    4 ar
   9    3   17 1
  10    3    8 ar
  11    4   18 1
  12    4    7 ar
  13    5    8 ar
  14    5    6 ar
  15    5   19 1
  16    6    7 ar
  17    6   20 1
  18    8   11 1
  19    9   11 1
  20    9   21 1
  21    9   22 1
  22    9   10 1
  23   10   23 1
  24   10   24 1
  25   10   25 1
  26   12   26 1
  27   12   27 1

#	End of record

