#	Name: ASD01883573
#	Creating user name:	WinNT
#	Creation time:	15. 06. 2019 19:46

#	Modifying user name:	WinNT
#	Modification time:	15. 06. 2019 19:46

#	Program:	/corina/corina34_cracker 3.40 0067  02.08.2006

@<TRIPOS>MOLECULE
ASD01883573
  48   50    0    0    0
SMALL
NO_CHARGES


@<TRIPOS>ATOM
   1 C1             2.3197     1.4180    -1.0363 C.2     
   2 C2             2.8033     0.1641    -1.1604 C.2     
   3 N3             4.0760    -0.1351    -0.7874 N.am    
   4 C4             4.8942     0.8072    -0.2836 C.2     
   5 C5             4.4416     2.1261    -0.1337 C.2     
   6 C6             3.1439     2.4399    -0.5119 C.2     
   7 O7             6.0331     0.5130     0.0440 O.2     
   8 Cl8            5.4893     3.3482     0.5163 Cl      
   9 C9             2.6310     3.8215    -0.3684 C.ar    
  10 C10            2.2901     4.5621    -1.5009 C.ar    
  11 C11            1.8126     5.8475    -1.3637 C.ar    
  12 C12            1.6709     6.4064    -0.0997 C.ar    
  13 C13            2.0098     5.6719     1.0299 C.ar    
  14 C14            2.4820     4.3838     0.9001 C.ar    
  15 O15            1.2005     7.6734     0.0320 O.3     
  16 C16            0.7805     8.3164    -1.0865 C.ar    
  17 C17           -0.5409     8.1943    -1.5015 C.ar    
  18 C18           -0.9713     8.8455    -2.6356 C.ar    
  19 C19           -0.0775     9.6302    -3.3702 C.ar    
  20 C20            1.2502     9.7503    -2.9496 C.ar    
  21 C21            1.6712     9.1001    -1.8114 C.ar    
  22 C22            4.5653    -1.5079    -0.9361 C.3     
  23 C23            5.1983    -1.6768    -2.3187 C.3     
  24 C24           -0.5341    10.3291    -4.5859 C.2     
  25 O25           -1.6884    10.2233    -4.9503 O.2     
  26 O26            0.3289    11.0850    -5.2927 O.3     
  27 C27            5.7094    -3.1105    -2.4740 C.3     
  28 C28            6.3424    -3.2794    -3.8566 C.3     
  29 H29            1.3078     1.6410    -1.3409 H       
  30 H30            2.1698    -0.6132    -1.5615 H       
  31 H31            2.4007     4.1285    -2.4838 H       
  32 H32            1.5486     6.4212    -2.2398 H       
  33 H33            1.8991     6.1095     2.0111 H       
  34 H34            2.7450     3.8133     1.7786 H       
  35 H35           -1.2306     7.5876    -0.9335 H       
  36 H36           -1.9978     8.7499    -2.9574 H       
  37 H37            1.9438    10.3553    -3.5146 H       
  38 H38            2.6968     9.1924    -1.4858 H       
  39 H39            5.3107    -1.7132    -0.1677 H       
  40 H40            3.7330    -2.2038    -0.8301 H       
  41 H41            4.4530    -1.4715    -3.0871 H       
  42 H42            6.0306    -0.9809    -2.4247 H       
  43 H43           -0.0165    11.5237    -6.0822 H       
  44 H44            6.4547    -3.3158    -1.7056 H       
  45 H45            4.8771    -3.8064    -2.3680 H       
  46 H46            5.5971    -3.0741    -4.6250 H       
  47 H47            7.1747    -2.5835    -3.9626 H       
  48 H48            6.7065    -4.3008    -3.9673 H       
@<TRIPOS>BOND
   1    1    2 2
   2    1    6 1
   3    1   29 1
   4    2    3 1
   5    2   30 1
   6    3    4 am
   7    3   22 1
   8    4    5 1
   9    4    7 2
  10    5    6 2
  11    5    8 1
  12    6    9 1
  13    9   10 ar
  14    9   14 ar
  15   10   11 ar
  16   10   31 1
  17   11   12 ar
  18   11   32 1
  19   12   13 ar
  20   12   15 1
  21   13   14 ar
  22   13   33 1
  23   14   34 1
  24   15   16 1
  25   16   17 ar
  26   16   21 ar
  27   17   18 ar
  28   17   35 1
  29   18   19 ar
  30   18   36 1
  31   19   20 ar
  32   19   24 1
  33   20   21 ar
  34   20   37 1
  35   21   38 1
  36   22   23 1
  37   22   39 1
  38   22   40 1
  39   23   27 1
  40   23   41 1
  41   23   42 1
  42   24   25 2
  43   24   26 1
  44   26   43 1
  45   27   28 1
  46   27   44 1
  47   27   45 1
  48   28   46 1
  49   28   47 1
  50   28   48 1

#	End of record

