#	Name: ASD08150978
#	Creating user name:	WinNT
#	Creation time:	15. 06. 2019 21:16

#	Modifying user name:	WinNT
#	Modification time:	15. 06. 2019 21:16

#	Program:	/corina/corina34_cracker 3.40 0067  02.08.2006

@<TRIPOS>MOLECULE
ASD08150978
  43   47    0    0    0
SMALL
NO_CHARGES


@<TRIPOS>ATOM
   1 N1            -0.2298     1.3928     0.1793 N.2     
   2 C2            -0.6128     0.2666     0.7070 C.2     
   3 N3            -0.2564     0.2234     2.0220 N.pl3   
   4 C4             0.3854     1.4005     2.3131 C.ar    
   5 N5             0.9443     1.9206     3.4008 N.ar    
   6 C6             1.5002     3.1134     3.3646 C.ar    
   7 N7             1.5332     3.8469     2.2672 N.ar    
   8 C8             0.9999     3.4100     1.1309 C.ar    
   9 C9             0.3950     2.1419     1.1194 C.ar    
  10 N10            1.0389     4.1863    -0.0141 N.pl3   
  11 C11            1.6735     5.5064     0.0171 C.3     
  12 C12            2.1283     5.8871    -1.3932 C.3     
  13 N13            0.2156     9.8479     2.1533 N.2     
  14 O14           -0.8957    10.2810     2.3657 O.3     
  15 C15           -1.8749     9.4644     1.9629 C.2     
  16 C16           -1.2544     8.3600     1.4197 C.ar    
  17 C17           -1.6282     7.1444     0.8205 C.ar    
  18 C18           -0.6785     6.2714     0.3925 C.ar    
  19 C19            0.6850     6.5272     0.5189 C.ar    
  20 C20            1.1535     7.6926     1.0930 C.ar    
  21 C21            0.1826     8.6743     1.5755 C.ar    
  22 C22            2.6073     7.9430     1.2169 C.ar    
  23 C23            3.1991     8.9939     0.5156 C.ar    
  24 C24            4.5564     9.2225     0.6360 C.ar    
  25 C25            5.3282     8.4098     1.4515 C.ar    
  26 C26            4.7454     7.3671     2.1483 C.ar    
  27 C27            3.3898     7.1326     2.0398 C.ar    
  28 F28            5.1321    10.2392    -0.0423 F       
  29 Cl29          -3.3093     6.7559     0.6286 Cl      
  30 H30           -1.1362    -0.5180     0.1808 H       
  31 H31           -0.4258    -0.5058     2.6389 H       
  32 H32            1.9457     3.5068     4.2664 H       
  33 H33            0.6461     3.8564    -0.8374 H       
  34 H34            2.5366     5.4789     0.6822 H       
  35 H35            2.6004     6.8693    -1.3700 H       
  36 H36            2.8433     5.1488    -1.7562 H       
  37 H37            1.2651     5.9146    -2.0583 H       
  38 H38           -2.9380     9.6356     2.0467 H       
  39 H39           -0.9929     5.3446    -0.0641 H       
  40 H40            2.5978     9.6269    -0.1201 H       
  41 H41            6.3889     8.5914     1.5428 H       
  42 H42            5.3520     6.7370     2.7819 H       
  43 H43            2.9359     6.3205     2.5883 H       
@<TRIPOS>BOND
   1    1    2 2
   2    1    9 1
   3    2    3 1
   4    2   30 1
   5    3    4 1
   6    3   31 1
   7    4    5 ar
   8    4    9 ar
   9    5    6 ar
  10    6    7 ar
  11    6   32 1
  12    7    8 ar
  13    8    9 ar
  14    8   10 1
  15   10   11 1
  16   10   33 1
  17   11   12 1
  18   11   19 1
  19   11   34 1
  20   12   35 1
  21   12   36 1
  22   12   37 1
  23   13   14 1
  24   13   21 2
  25   14   15 1
  26   15   16 2
  27   15   38 1
  28   16   17 ar
  29   16   21 ar
  30   17   18 ar
  31   17   29 1
  32   18   19 ar
  33   18   39 1
  34   19   20 ar
  35   20   21 ar
  36   20   22 1
  37   22   23 ar
  38   22   27 ar
  39   23   24 ar
  40   23   40 1
  41   24   25 ar
  42   24   28 1
  43   25   26 ar
  44   25   41 1
  45   26   27 ar
  46   26   42 1
  47   27   43 1

#	End of record

