#	Name: ASD01882020
#	Creating user name:	WinNT
#	Creation time:	15. 06. 2019 19:43

#	Modifying user name:	WinNT
#	Modification time:	15. 06. 2019 19:43

#	Program:	/corina/corina34_cracker 3.40 0067  02.08.2006

@<TRIPOS>MOLECULE
ASD01882020
  58   61    0    0    0
SMALL
NO_CHARGES


@<TRIPOS>ATOM
   1 C1            -0.0161     1.3337     0.0094 C.2     
   2 N2             0.0021    -0.0041     0.0020 N.am    
   3 C3             1.2613    -0.4841    -0.0126 C.2     
   4 C4             2.1640     0.7337    -0.0147 C.3     
   5 N5             1.2200     1.8645     0.0004 N.am    
   6 O6            -1.0354     1.9955     0.0180 O.2     
   7 O7             1.6013    -1.6477    -0.0215 O.2     
   8 C8            -1.1986    -0.8435     0.0097 C.3     
   9 C9             1.5609     3.2893     0.0041 C.3     
  10 C10            1.6916     3.7708     1.4261 C.ar    
  11 C11            2.9179     3.7119     2.0633 C.ar    
  12 C12            3.0436     4.1523     3.3663 C.ar    
  13 C13            1.9303     4.6571     4.0391 C.ar    
  14 C14            0.6977     4.7135     3.3908 C.ar    
  15 C15            0.5860     4.2753     2.0868 C.ar    
  16 C16            2.2789     6.7390     9.3442 C.2     
  17 N17            1.6845     7.9356     9.1984 N.am    
  18 C18            1.2664     8.0881     7.8003 C.3     
  19 C19            1.6824     6.8210     7.0951 C.ar    
  20 C20            1.5628     6.3859     5.7986 C.ar    
  21 C21            2.0578     5.1311     5.4380 C.ar    
  22 C22            2.6722     4.3236     6.3958 C.ar    
  23 C23            2.7920     4.7601     7.6955 C.ar    
  24 C24            2.2972     6.0160     8.0592 C.ar    
  25 O25            2.7404     6.3152    10.3860 O.2     
  26 C26            1.4864     8.9247    10.2608 C.3     
  27 C27            2.6926     9.8644    10.3142 C.3     
  28 C28            2.4856    10.8974    11.4237 C.3     
  29 C29            3.9581     9.0540    10.6014 C.3     
  30 C30            2.8402    10.5815     8.9707 C.3     
  31 O31            3.6122    11.7751    11.4735 O.3     
  32 Cl32           4.5830     4.0773     4.1653 Cl      
  33 H33            2.7924     0.7467     0.8759 H       
  34 H34            2.7753     0.7564    -0.9169 H       
  35 H35           -1.5068    -1.0461    -1.0159 H       
  36 H36           -0.9813    -1.7838     0.5163 H       
  37 H37           -2.0010    -0.3250     0.5345 H       
  38 H38            2.5060     3.4381    -0.5182 H       
  39 H39            0.7749     3.8522    -0.4994 H       
  40 H40            3.7784     3.3205     1.5411 H       
  41 H41           -0.1674     5.1033     3.9065 H       
  42 H42           -0.3679     4.3225     1.5825 H       
  43 H43            0.1847     8.2103     7.7440 H       
  44 H44            1.7649     8.9474     7.3518 H       
  45 H45            1.0862     7.0125     5.0593 H       
  46 H46            3.0546     3.3530     6.1165 H       
  47 H47            3.2681     4.1325     8.4343 H       
  48 H48            0.5848     9.5020    10.0561 H       
  49 H49            1.3812     8.4137    11.2179 H       
  50 H50            1.5840    11.4747    11.2190 H       
  51 H51            2.3804    10.3865    12.3808 H       
  52 H52            4.1056     8.3181     9.8110 H       
  53 H53            4.8175     9.7235    10.6395 H       
  54 H54            3.8530     8.5431    11.5585 H       
  55 H55            1.9386    11.1589     8.7661 H       
  56 H56            3.6995    11.2510     9.0088 H       
  57 H57            2.9876     9.8456     8.1803 H       
  58 H58            3.5493    12.4574    12.1558 H       
@<TRIPOS>BOND
   1    1    2 am
   2    1    5 am
   3    1    6 2
   4    2    3 am
   5    2    8 1
   6    3    4 1
   7    3    7 2
   8    4    5 1
   9    4   33 1
  10    4   34 1
  11    5    9 1
  12    8   35 1
  13    8   36 1
  14    8   37 1
  15    9   10 1
  16    9   38 1
  17    9   39 1
  18   10   11 ar
  19   10   15 ar
  20   11   12 ar
  21   11   40 1
  22   12   13 ar
  23   12   32 1
  24   13   14 ar
  25   13   21 1
  26   14   15 ar
  27   14   41 1
  28   15   42 1
  29   16   17 am
  30   16   24 1
  31   16   25 2
  32   17   18 1
  33   17   26 1
  34   18   19 1
  35   18   43 1
  36   18   44 1
  37   19   20 ar
  38   19   24 ar
  39   20   21 ar
  40   20   45 1
  41   21   22 ar
  42   22   23 ar
  43   22   46 1
  44   23   24 ar
  45   23   47 1
  46   26   27 1
  47   26   48 1
  48   26   49 1
  49   27   28 1
  50   27   29 1
  51   27   30 1
  52   28   31 1
  53   28   50 1
  54   28   51 1
  55   29   52 1
  56   29   53 1
  57   29   54 1
  58   30   55 1
  59   30   56 1
  60   30   57 1
  61   31   58 1

#	End of record

