#	Name: ASD03092025
#	Creating user name:	WinNT
#	Creation time:	15. 06. 2019 20:31

#	Modifying user name:	WinNT
#	Modification time:	15. 06. 2019 20:31

#	Program:	/corina/corina34_cracker 3.40 0067  02.08.2006

@<TRIPOS>MOLECULE
ASD03092025
  49   51    0    0    0
SMALL
NO_CHARGES


@<TRIPOS>ATOM
   1 N1             0.0272     1.3642    -0.0249 N.pl3   
   2 C2             0.0182     0.0008    -0.0071 C.2     
   3 C3            -1.2875    -0.3995     0.0181 C.2     
   4 C4            -2.0877     0.7498     0.0156 C.2     
   5 N5            -1.3030     1.8025    -0.0039 N.2     
   6 C6             1.2167     2.2188    -0.0542 C.3     
   7 C7             1.6744     2.3939    -1.4793 C.2     
   8 N8             2.7589     3.1465    -1.7511 N.am    
   9 N9            -3.4875     0.7727     0.0361 N.pl3   
  10 C10           -4.1653     1.9901     0.1545 C.ar    
  11 C11           -5.4582     2.1169    -0.3366 C.ar    
  12 C12           -6.1259     3.3203    -0.2181 C.ar    
  13 C13           -5.5072     4.3996     0.3896 C.ar    
  14 C14           -4.2179     4.2755     0.8800 C.ar    
  15 C15           -3.5485     3.0729     0.7685 C.ar    
  16 C16            1.2045    -0.8825    -0.0144 C.ar    
  17 C17            1.0412    -2.2617     0.1141 C.ar    
  18 C18            2.1609    -3.0748     0.1055 C.ar    
  19 C19            3.4087    -2.4830    -0.0314 C.ar    
  20 C20            3.4984    -1.1084    -0.1544 C.ar    
  21 N21            2.4168    -0.3566    -0.1487 N.ar    
  22 C22            3.2039     3.3167    -3.1365 C.3     
  23 F23           -6.1620     5.5758     0.5039 F       
  24 O24            1.0667     1.8577    -2.3816 O.2     
  25 C25            3.4929     3.7942    -0.6612 C.3     
  26 C26            2.0282    -4.5697     0.2423 C.3     
  27 C27           -7.5286     3.4587    -0.7512 C.3     
  28 F28           -7.9348     2.2449    -1.3158 F       
  29 F29           -8.3934     3.7991     0.2945 F       
  30 F30           -7.5599     4.4606    -1.7271 F       
  31 H31           -1.6399    -1.4202     0.0367 H       
  32 H32            0.9752     3.1925     0.3721 H       
  33 H33            2.0122     1.7543     0.5284 H       
  34 H34           -3.9872    -0.0560    -0.0317 H       
  35 H35           -5.9410     1.2754    -0.8110 H       
  36 H36           -3.7372     5.1188     1.3533 H       
  37 H37           -2.5433     2.9764     1.1514 H       
  38 H38            0.0549    -2.6889     0.2193 H       
  39 H39            4.3017    -3.0903    -0.0414 H       
  40 H40            4.4683    -0.6454    -0.2607 H       
  41 H41            2.7154     4.1893    -3.5704 H       
  42 H42            4.2845     3.4579    -3.1563 H       
  43 H43            2.9427     2.4297    -3.7136 H       
  44 H44            3.0173     3.5546     0.2898 H       
  45 H45            4.5223     3.4359    -0.6531 H       
  46 H46            3.4852     4.8741    -0.8094 H       
  47 H47            1.9251    -5.0172    -0.7463 H       
  48 H48            2.9162    -4.9700     0.7315 H       
  49 H49            1.1474    -4.8031     0.8404 H       
@<TRIPOS>BOND
   1    1    2 1
   2    1    6 1
   3    1    5 1
   4    2    3 2
   5    2   16 1
   6    3    4 1
   7    3   31 1
   8    4    5 2
   9    4    9 1
  10    6    7 1
  11    6   32 1
  12    6   33 1
  13    7    8 am
  14    7   24 2
  15    8   22 1
  16    8   25 1
  17    9   10 1
  18    9   34 1
  19   10   11 ar
  20   10   15 ar
  21   11   12 ar
  22   11   35 1
  23   12   13 ar
  24   12   27 1
  25   13   14 ar
  26   13   23 1
  27   14   15 ar
  28   14   36 1
  29   15   37 1
  30   16   17 ar
  31   16   21 ar
  32   17   18 ar
  33   17   38 1
  34   18   19 ar
  35   18   26 1
  36   19   20 ar
  37   19   39 1
  38   20   21 ar
  39   20   40 1
  40   22   41 1
  41   22   42 1
  42   22   43 1
  43   25   44 1
  44   25   45 1
  45   25   46 1
  46   26   47 1
  47   26   48 1
  48   26   49 1
  49   27   28 1
  50   27   29 1
  51   27   30 1

#	End of record

