#	Name: ASD05430632
#	Creating user name:	WinNT
#	Creation time:	15. 06. 2019 21:00

#	Modifying user name:	WinNT
#	Modification time:	15. 06. 2019 21:00

#	Program:	/corina/corina34_cracker 3.40 0067  02.08.2006

@<TRIPOS>MOLECULE
ASD05430632
  44   46    0    0    0
SMALL
NO_CHARGES


@<TRIPOS>ATOM
   1 C1            -0.0170     1.4029     0.0098 C.ar    
   2 C2             0.0021    -0.0041     0.0020 C.ar    
   3 C3             1.1922    -0.7031    -0.0339 C.ar    
   4 C4             2.4040    -0.0412    -0.0631 C.ar    
   5 C5             2.4070     1.3448    -0.0449 C.ar    
   6 C6             1.2237     2.0305     0.0013 C.ar    
   7 C7             3.7129     2.0962    -0.0756 C.3     
   8 C8             4.5528     1.7090     1.1432 C.3     
   9 C9             4.4753     1.7418    -1.3539 C.3     
  10 N10           -1.2098    -0.7091     0.0317 N.pl3   
  11 C11           -2.2375    -0.5122     0.8978 C.2     
  12 C12           -1.5834    -1.7234    -0.8116 C.2     
  13 C13           -2.8154    -2.1123    -0.4319 C.2     
  14 N14           -3.1898    -1.3576     0.6117 N.2     
  15 C15           -3.6339    -3.2039    -1.0719 C.3     
  16 Si16           0.8165     3.8735     0.0897 Si      
  17 C17           -1.0245     3.7137     0.5149 C.3     
  18 C18           -1.2493     2.2707     0.0013 C.3     
  19 C19            1.7658     4.7241     1.4484 C.3     
  20 C20            1.0735     4.7152    -1.5523 C.3     
  21 H21            1.1753    -1.7829    -0.0388 H       
  22 H22            3.3317    -0.5931    -0.0990 H       
  23 H23            3.5159     3.1681    -0.0554 H       
  24 H24            4.7498     0.6371     1.1230 H       
  25 H25            5.4974     2.2525     1.1210 H       
  26 H26            4.0097     1.9615     2.0539 H       
  27 H27            3.8769     2.0177    -2.2221 H       
  28 H28            5.4199     2.2853    -1.3760 H       
  29 H29            4.6723     0.6700    -1.3741 H       
  30 H30           -2.2622     0.2207     1.6906 H       
  31 H31           -1.0015    -2.1319    -1.6246 H       
  32 H32           -3.4166    -4.1543    -0.5845 H       
  33 H33           -4.6939    -2.9741    -0.9637 H       
  34 H34           -3.3833    -3.2728    -2.1305 H       
  35 H35           -1.1965     3.7885     1.5886 H       
  36 H36           -1.6279     4.4350    -0.0362 H       
  37 H37           -1.6275     2.3225    -1.0197 H       
  38 H38           -2.0097     1.7975     0.6226 H       
  39 H39            2.8352     4.6174     1.2663 H       
  40 H40            1.5042     5.7821     1.4670 H       
  41 H41            1.5134     4.2706     2.4069 H       
  42 H42            0.4274     4.2565    -2.3008 H       
  43 H43            0.8289     5.7734    -1.4604 H       
  44 H44            2.1148     4.6080    -1.8564 H       
@<TRIPOS>BOND
   1    1    2 ar
   2    1    6 ar
   3    1   18 1
   4    2    3 ar
   5    2   10 1
   6    3    4 ar
   7    3   21 1
   8    4    5 ar
   9    4   22 1
  10    5    6 ar
  11    5    7 1
  12    6   16 1
  13    7    8 1
  14    7    9 1
  15    7   23 1
  16    8   24 1
  17    8   25 1
  18    8   26 1
  19    9   27 1
  20    9   28 1
  21    9   29 1
  22   10   11 1
  23   10   12 1
  24   11   14 2
  25   11   30 1
  26   12   13 2
  27   12   31 1
  28   13   14 1
  29   13   15 1
  30   15   32 1
  31   15   33 1
  32   15   34 1
  33   16   17 1
  34   16   19 1
  35   16   20 1
  36   17   18 1
  37   17   35 1
  38   17   36 1
  39   18   37 1
  40   18   38 1
  41   19   39 1
  42   19   40 1
  43   19   41 1
  44   20   42 1
  45   20   43 1
  46   20   44 1

#	End of record

