#	Name: ASD03930137
#	Creating user name:	WinNT
#	Creation time:	15. 06. 2019 20:47

#	Modifying user name:	WinNT
#	Modification time:	15. 06. 2019 20:47

#	Program:	/corina/corina34_cracker 3.40 0067  02.08.2006

@<TRIPOS>MOLECULE
ASD03930137
  55   57    0    0    0
SMALL
NO_CHARGES


@<TRIPOS>ATOM
   1 N1            -0.0169     1.3951     0.0097 N.pl3   
   2 N2             0.0021    -0.0041     0.0020 N.2     
   3 C3             1.2415    -0.4101    -0.0120 C.2     
   4 C4             2.0753     0.7311    -0.0138 C.2     
   5 C5             1.2499     1.8386    -0.0000 C.2     
   6 C6             3.5481     0.7382    -0.0271 C.2     
   7 O7             4.1607    -0.3113    -0.0379 O.2     
   8 O8             4.2163     1.9084    -0.0273 O.3     
   9 C9             1.7035    -1.8445    -0.0237 C.3     
  10 F10            0.5947    -2.6907    -0.1327 F       
  11 F11            2.5565    -2.0509    -1.1131 F       
  12 F12            2.3880    -2.1236     1.1640 F       
  13 C13           -1.2174     2.2346     0.0202 C.3     
  14 C14           -4.7295     0.6201    -4.2648 C.3     
  15 C15           -5.7916    -0.1025    -3.4092 C.3     
  16 C16           -4.9937    -0.4858    -2.1448 C.3     
  17 C17           -3.8810     0.5364    -2.0536 C.ar    
  18 C18           -3.0656     0.8829    -0.9891 C.ar    
  19 C19           -2.1021     1.8605    -1.1411 C.ar    
  20 C20           -1.9503     2.4961    -2.3594 C.ar    
  21 C21           -2.7624     2.1520    -3.4221 C.ar    
  22 C22           -3.7292     1.1718    -3.2717 C.ar    
  23 S23           -7.6890    -1.2286    -4.9734 S.o2    
  24 O24           -7.8637    -2.5519    -5.4608 O.2     
  25 O25           -8.6311    -0.6451    -4.0839 O.2     
  26 N26           -6.2870    -1.2986    -4.0949 N.am    
  27 C27           -7.3126    -0.0927    -6.3367 C.3     
  28 C28           -6.1501    -0.6513    -7.1598 C.3     
  29 C29           -8.5450     0.0570    -7.2309 C.3     
  30 C30            5.6666     1.8394    -0.0408 C.3     
  31 C31            6.2446     3.2560    -0.0389 C.3     
  32 H32            1.5658     2.8713     0.0025 H       
  33 H33           -1.7593     2.0822     0.9536 H       
  34 H34           -0.9290     3.2822    -0.0656 H       
  35 H35           -4.2434    -0.0850    -4.9391 H       
  36 H36           -5.1876     1.4313    -4.8306 H       
  37 H37           -6.6121     0.5705    -3.1604 H       
  38 H38           -5.6321    -0.4296    -1.2632 H       
  39 H39           -4.5787    -1.4883    -2.2489 H       
  40 H40           -3.1836     0.3868    -0.0370 H       
  41 H41           -1.1971     3.2606    -2.4802 H       
  42 H42           -2.6432     2.6489    -4.3736 H       
  43 H43           -5.7937    -2.1317    -4.0343 H       
  44 H44           -7.0365     0.8813    -5.9325 H       
  45 H45           -6.4261    -1.6252    -7.5640 H       
  46 H46           -5.9239     0.0312    -7.9790 H       
  47 H47           -5.2721    -0.7579    -6.5228 H       
  48 H48           -9.3732     0.4550    -6.6446 H       
  49 H49           -8.3188     0.7395    -8.0501 H       
  50 H50           -8.8210    -0.9169    -7.6352 H       
  51 H51            6.0131     1.3044     0.8434 H       
  52 H52            5.9970     1.3133    -0.9364 H       
  53 H53            5.8981     3.7910    -0.9231 H       
  54 H54            5.9142     3.7820     0.8567 H       
  55 H55            7.3334     3.2042    -0.0490 H       
@<TRIPOS>BOND
   1    1    2 1
   2    1    5 1
   3    1   13 1
   4    2    3 2
   5    3    4 1
   6    3    9 1
   7    4    5 2
   8    4    6 1
   9    5   32 1
  10    6    7 2
  11    6    8 1
  12    8   30 1
  13    9   10 1
  14    9   11 1
  15    9   12 1
  16   13   19 1
  17   13   33 1
  18   13   34 1
  19   14   15 1
  20   14   22 1
  21   14   35 1
  22   14   36 1
  23   15   16 1
  24   15   26 1
  25   15   37 1
  26   16   17 1
  27   16   38 1
  28   16   39 1
  29   17   18 ar
  30   17   22 ar
  31   18   19 ar
  32   18   40 1
  33   19   20 ar
  34   20   21 ar
  35   20   41 1
  36   21   22 ar
  37   21   42 1
  38   23   24 2
  39   23   25 2
  40   23   26 am
  41   23   27 1
  42   26   43 1
  43   27   28 1
  44   27   29 1
  45   27   44 1
  46   28   45 1
  47   28   46 1
  48   28   47 1
  49   29   48 1
  50   29   49 1
  51   29   50 1
  52   30   31 1
  53   30   51 1
  54   30   52 1
  55   31   53 1
  56   31   54 1
  57   31   55 1

#	End of record

