#	Name: ASD05380069
#	Creating user name:	WinNT
#	Creation time:	15. 06. 2019 20:59

#	Modifying user name:	WinNT
#	Modification time:	15. 06. 2019 20:59

#	Program:	/corina/corina34_cracker 3.40 0067  02.08.2006

@<TRIPOS>MOLECULE
ASD05380069
  51   55    0    0    0
SMALL
NO_CHARGES


@<TRIPOS>ATOM
   1 C1            -0.3042     1.6370     0.3397 C.ar    
   2 C2            -0.3140     0.2507     0.0666 C.ar    
   3 C3             0.9038     2.2986     0.5491 C.ar    
   4 C4             2.0848     1.5913     0.4876 C.ar    
   5 C5             2.0789     0.2291     0.2189 C.ar    
   6 C6             0.8958    -0.4438     0.0100 C.ar    
   7 N7            -1.5020    -0.3722    -0.1338 N.2     
   8 C8            -2.6271     0.2741    -0.0807 C.2     
   9 N9            -2.7119     1.6072     0.1753 N.am    
  10 C10           -1.5950     2.3381     0.3990 C.2     
  11 C11           -3.9683     2.2286     0.2140 C.ar    
  12 C12           -4.6351     2.3776     1.4245 C.ar    
  13 C13           -4.5477     2.7025    -0.9573 C.ar    
  14 C14           -5.7874     3.3151    -0.9149 C.ar    
  15 C15           -6.4500     3.4562     0.2903 C.ar    
  16 C16           -5.8745     2.9912     1.4584 C.ar    
  17 C17           -3.9036    -0.4918    -0.3150 C.3     
  18 N18           -3.6750    -1.5230    -1.3303 N.pl3   
  19 C19           -4.7331    -1.9967    -2.0855 C.ar    
  20 N20           -5.9619    -1.5266    -1.9019 N.ar    
  21 O21           -1.6562     3.5318     0.6297 O.2     
  22 C22           -4.5299    -2.9815    -3.0676 C.ar    
  23 C23           -5.6398    -3.4256    -3.8052 C.ar    
  24 N24           -6.8361    -2.9042    -3.5523 N.ar    
  25 C25           -6.9824    -1.9748    -2.6219 C.ar    
  26 N26           -3.4500    -3.6654    -3.5198 N.2     
  27 C27           -3.8182    -4.4804    -4.4645 C.2     
  28 N28           -5.1613    -4.3699    -4.6778 N.pl3   
  29 F29           -3.9008     2.5655    -2.1354 F       
  30 F30           -4.0738     1.9232     2.5663 F       
  31 C31            0.9190     3.7772     0.8402 C.3     
  32 C32           -4.3493    -1.1521     0.9912 C.3     
  33 N33           -8.2442    -1.4521    -2.3912 N.pl3   
  34 H34            3.0231     2.1010     0.6493 H       
  35 H35            3.0139    -0.3096     0.1737 H       
  36 H36            0.9038    -1.5036    -0.1978 H       
  37 H37           -6.2381     3.6838    -1.8245 H       
  38 H38           -7.4177     3.9348     0.3201 H       
  39 H39           -6.3952     3.1033     2.3979 H       
  40 H40           -4.6794     0.1918    -0.6597 H       
  41 H41           -2.7820    -1.8736    -1.4730 H       
  42 H42           -3.1581    -5.1460    -5.0010 H       
  43 H43           -5.6823    -4.8679    -5.3270 H       
  44 H44            0.7413     3.9400     1.9032 H       
  45 H45            1.8892     4.1915     0.5663 H       
  46 H46            0.1373     4.2694     0.2616 H       
  47 H47           -3.5988    -1.8771     1.3064 H       
  48 H48           -4.4650    -0.3905     1.7623 H       
  49 H49           -5.3015    -1.6592     0.8356 H       
  50 H50           -8.3702    -0.7704    -1.7128 H       
  51 H51           -9.0019    -1.7679    -2.9081 H       
@<TRIPOS>BOND
   1    1    2 ar
   2    1    3 ar
   3    1   10 1
   4    2    7 1
   5    2    6 ar
   6    3    4 ar
   7    3   31 1
   8    4    5 ar
   9    4   34 1
  10    5    6 ar
  11    5   35 1
  12    6   36 1
  13    7    8 2
  14    8    9 1
  15    8   17 1
  16    9   10 am
  17    9   11 1
  18   10   21 2
  19   11   12 ar
  20   11   13 ar
  21   12   30 1
  22   12   16 ar
  23   13   14 ar
  24   13   29 1
  25   14   15 ar
  26   14   37 1
  27   15   16 ar
  28   15   38 1
  29   16   39 1
  30   17   18 1
  31   17   32 1
  32   17   40 1
  33   18   19 1
  34   18   41 1
  35   19   20 ar
  36   19   22 ar
  37   20   25 ar
  38   22   23 ar
  39   22   26 1
  40   23   24 ar
  41   23   28 1
  42   24   25 ar
  43   25   33 1
  44   26   27 2
  45   27   28 1
  46   27   42 1
  47   28   43 1
  48   31   44 1
  49   31   45 1
  50   31   46 1
  51   32   47 1
  52   32   48 1
  53   32   49 1
  54   33   50 1
  55   33   51 1

#	End of record

