#	Name: ASD05143307
#	Creating user name:	WinNT
#	Creation time:	15. 06. 2019 20:57

#	Modifying user name:	WinNT
#	Modification time:	15. 06. 2019 20:57

#	Program:	/corina/corina34_cracker 3.40 0067  02.08.2006

@<TRIPOS>MOLECULE
ASD05143307
  53   55    0    0    0
SMALL
NO_CHARGES


@<TRIPOS>ATOM
   1 C1             0.3379     1.2372     0.2636 C.2     
   2 N2             0.3397    -0.0291    -0.1029 N.2     
   3 S3            -1.2949    -0.4838    -0.1955 S.3     
   4 C4            -1.8995     1.0615     0.2661 C.2     
   5 N5            -0.8347     1.8075     0.4624 N.2     
   6 N6            -3.2229     1.4363     0.4057 N.pl3   
   7 C7            -3.5422     2.7100     0.8917 C.ar    
   8 C8            -4.8657     3.0350     1.1834 C.ar    
   9 C9            -5.1755     4.2961     1.6643 C.ar    
  10 C10           -4.1730     5.2300     1.8537 C.ar    
  11 C11           -2.8601     4.9087     1.5641 C.ar    
  12 C12           -2.5415     3.6499     1.0895 C.ar    
  13 C13            1.4344    -0.8165    -0.3572 C.ar    
  14 C14            1.6223    -2.0041     0.3520 C.ar    
  15 C15            2.3601    -0.4351    -1.3299 C.ar    
  16 C16            3.4586    -1.2294    -1.5827 C.ar    
  17 C17            3.6445    -2.4070    -0.8715 C.ar    
  18 C18            2.7235    -2.7927     0.0930 C.ar    
  19 C19            1.6013     1.9873     0.4504 C.ar    
  20 C20            1.6516     3.3529     0.1700 C.ar    
  21 C21            2.7422     1.3309     0.9127 C.ar    
  22 C22            3.9164     2.0323     1.0859 C.ar    
  23 C23            3.9642     3.3905     0.8012 C.ar    
  24 C24            2.8292     4.0480     0.3455 C.ar    
  25 O25            4.7284    -3.1874    -1.1240 O.3     
  26 C26            4.8585    -4.3854    -0.3559 C.3     
  27 O27            5.1228     4.0788     0.9739 O.3     
  28 C28            5.1017     5.4732     0.6620 C.3     
  29 O29           -5.8505     2.1160     0.9959 O.3     
  30 C30           -7.1835     2.5191     1.3162 C.3     
  31 H31           -3.9301     0.8169     0.1669 H       
  32 H32           -6.2003     4.5506     1.8912 H       
  33 H33           -4.4167     6.2131     2.2285 H       
  34 H34           -2.0808     5.6414     1.7129 H       
  35 H35           -1.5149     3.4014     0.8644 H       
  36 H36            0.9065    -2.3046     1.1027 H       
  37 H37            2.2160     0.4807    -1.8839 H       
  38 H38            4.1751    -0.9351    -2.3354 H       
  39 H39            2.8720    -3.7094     0.6444 H       
  40 H40            0.7693     3.8649    -0.1845 H       
  41 H41            2.7055     0.2747     1.1350 H       
  42 H42            4.8000     1.5248     1.4438 H       
  43 H43            2.8699     5.1045     0.1250 H       
  44 H44            5.7636    -4.9132    -0.6564 H       
  45 H45            4.9193    -4.1333     0.7028 H       
  46 H46            3.9917    -5.0234    -0.5283 H       
  47 H47            4.8350     5.6070    -0.3863 H       
  48 H48            4.3663     5.9751     1.2909 H       
  49 H49            6.0876     5.9011     0.8436 H       
  50 H50           -7.2366     2.7946     2.3695 H       
  51 H51           -7.4615     3.3758     0.7022 H       
  52 H52           -7.8692     1.6946     1.1212 H       
  53 Br53          11.0876    11.2131     7.3695 Br      
@<TRIPOS>BOND
   1    1    2 2
   2    1   19 1
   3    1    5 1
   4    2    3 1
   5    2   13 1
   6    3    4 1
   7    4    5 2
   8    4    6 1
   9    6    7 1
  10    6   31 1
  11    7    8 ar
  12    7   12 ar
  13    8    9 ar
  14    8   29 1
  15    9   10 ar
  16    9   32 1
  17   10   11 ar
  18   10   33 1
  19   11   12 ar
  20   11   34 1
  21   12   35 1
  22   13   14 ar
  23   13   15 ar
  24   14   18 ar
  25   14   36 1
  26   15   16 ar
  27   15   37 1
  28   16   17 ar
  29   16   38 1
  30   17   18 ar
  31   17   25 1
  32   18   39 1
  33   19   20 ar
  34   19   21 ar
  35   20   24 ar
  36   20   40 1
  37   21   22 ar
  38   21   41 1
  39   22   23 ar
  40   22   42 1
  41   23   24 ar
  42   23   27 1
  43   24   43 1
  44   25   26 1
  45   26   44 1
  46   26   45 1
  47   26   46 1
  48   27   28 1
  49   28   47 1
  50   28   48 1
  51   28   49 1
  52   29   30 1
  53   30   50 1
  54   30   51 1
  55   30   52 1

#	End of record

