#	Name: ASD01810258
#	Creating user name:	WinNT
#	Creation time:	15. 06. 2019 19:24

#	Modifying user name:	WinNT
#	Modification time:	15. 06. 2019 19:24

#	Program:	/corina/corina34_cracker 3.40 0067  02.08.2006

@<TRIPOS>MOLECULE
ASD01810258
  50   53    0    0    0
SMALL
NO_CHARGES


@<TRIPOS>ATOM
   1 C1            -0.0167     1.3820     0.0096 C.ar    
   2 C2             0.0021    -0.0041     0.0020 C.ar    
   3 C3             1.1959    -0.6932    -0.0127 C.ar    
   4 C4             2.4016     0.0019    -0.0205 C.ar    
   5 C5             2.3831     1.4075    -0.0132 C.ar    
   6 C6             1.1665     2.0939     0.0022 C.ar    
   7 N7             3.6010    -0.6771    -0.0346 N.pl3   
   8 C8             4.7870    -0.0549    -0.0418 C.2     
   9 C9             4.8957     1.3208    -0.0358 C.2     
  10 C10            3.6666     2.1313    -0.0216 C.2     
  11 F11            1.1476     3.4448     0.0091 F       
  12 O12            3.7090     3.3491    -0.0163 O.2     
  13 C13            3.5775    -2.1419    -0.0418 C.3     
  14 C14            3.5567    -2.6371    -1.4649 C.ar    
  15 C15            4.7321    -2.6859    -2.1962 C.ar    
  16 C16            4.7170    -3.1396    -3.5023 C.ar    
  17 C17            3.5179    -3.5477    -4.0806 C.ar    
  18 C18            2.3392    -3.4965    -3.3394 C.ar    
  19 C19            2.3650    -3.0467    -2.0349 C.ar    
  20 C20            3.4953    -4.0354    -5.4828 C.2     
  21 F21            5.8943    -2.2894    -1.6329 F       
  22 C22            6.2161     1.9660    -0.0431 C.2     
  23 O23            6.3092     3.3109    -0.0372 O.3     
  24 O24            7.2244     1.2870    -0.0544 O.2     
  25 C25            2.3971    -4.4634    -6.1699 C.2     
  26 N26            2.8021    -4.8188    -7.4058 N.pl3   
  27 N27            4.1836    -4.6077    -7.4911 N.2     
  28 C28            4.6027    -4.1345    -6.3475 C.2     
  29 C29            1.9449    -5.3373    -8.4747 C.3     
  30 C30            2.1110    -4.4730    -9.7262 C.3     
  31 C31            1.2157    -5.0145   -10.8425 C.3     
  32 H32           -0.9604     1.9071     0.0170 H       
  33 H33           -0.9295    -0.5505     0.0080 H       
  34 H34            1.1956    -1.7731    -0.0177 H       
  35 H35            5.6884    -0.6497    -0.0521 H       
  36 H36            4.4661    -2.5220     0.4622 H       
  37 H37            2.6865    -2.4935     0.4783 H       
  38 H38            5.6333    -3.1771    -4.0728 H       
  39 H39            1.4069    -3.8117    -3.7842 H       
  40 H40            1.4514    -3.0073    -1.4603 H       
  41 H41            7.1990     3.6894    -0.0423 H       
  42 H42            1.3864    -4.5096    -5.7921 H       
  43 H43            5.6219    -3.8719    -6.1051 H       
  44 H44            2.2291    -6.3647    -8.7023 H       
  45 H45            0.9044    -5.3114    -8.1508 H       
  46 H46            1.8268    -3.4456    -9.4986 H       
  47 H47            3.1514    -4.4989   -10.0501 H       
  48 H48            1.3340    -4.3987   -11.7341 H       
  49 H49            1.4999    -6.0418   -11.0701 H       
  50 H50            0.1752    -4.9886   -10.5185 H       
@<TRIPOS>BOND
   1    1    2 ar
   2    1    6 ar
   3    1   32 1
   4    2    3 ar
   5    2   33 1
   6    3    4 ar
   7    3   34 1
   8    4    5 ar
   9    4    7 1
  10    5    6 ar
  11    5   10 1
  12    6   11 1
  13    7    8 1
  14    7   13 1
  15    8    9 2
  16    8   35 1
  17    9   10 1
  18    9   22 1
  19   10   12 2
  20   13   14 1
  21   13   36 1
  22   13   37 1
  23   14   15 ar
  24   14   19 ar
  25   15   16 ar
  26   15   21 1
  27   16   17 ar
  28   16   38 1
  29   17   18 ar
  30   17   20 1
  31   18   19 ar
  32   18   39 1
  33   19   40 1
  34   20   25 2
  35   20   28 1
  36   22   23 1
  37   22   24 2
  38   23   41 1
  39   25   26 1
  40   25   42 1
  41   26   27 1
  42   26   29 1
  43   27   28 2
  44   28   43 1
  45   29   30 1
  46   29   44 1
  47   29   45 1
  48   30   31 1
  49   30   46 1
  50   30   47 1
  51   31   48 1
  52   31   49 1
  53   31   50 1

#	End of record

