#	Name: ASD01881551
#	Creating user name:	WinNT
#	Creation time:	15. 06. 2019 19:42

#	Modifying user name:	WinNT
#	Modification time:	15. 06. 2019 19:42

#	Program:	/corina/corina34_cracker 3.40 0067  02.08.2006

@<TRIPOS>MOLECULE
ASD01881551
  59   63    0    0    0
SMALL
NO_CHARGES


@<TRIPOS>ATOM
   1 C1            -0.0168     1.3869     0.0097 C.ar    
   2 C2             0.0021    -0.0041     0.0020 C.ar    
   3 C3            -1.1962    -0.6971     0.0102 C.ar    
   4 C4            -2.3788     0.0311     0.0259 C.ar    
   5 C5            -2.3273     1.4260     0.0328 C.ar    
   6 N6            -1.1603     2.0530     0.0297 N.ar    
   7 N7            -3.7266    -0.3258     0.0381 N.am    
   8 C8            -4.4593     0.8041     0.0519 C.2     
   9 N9            -3.6421     1.8735     0.0490 N.am    
  10 C10           -4.2541    -1.6925     0.0355 C.3     
  11 N11            1.1852     2.0888     0.0020 N.3     
  12 C12           -4.4223    -2.1769     1.4770 C.3     
  13 C13           -5.3964    -1.2557     2.2142 C.3     
  14 C14           -4.9732    -3.6043     1.4743 C.3     
  15 C15           -4.0681     3.2751     0.0618 C.3     
  16 O16           -5.6752     0.8511     0.0643 O.2     
  17 C17           -3.0656    -2.1552     2.1840 C.3     
  18 C18            0.9485     3.5375     0.0120 C.3     
  19 C19            0.2592     3.9256     1.3297 C.3     
  20 N20            1.1707     3.5092     2.4154 N.am    
  21 C21            2.4266     2.8651     1.9749 C.3     
  22 C22            2.0519     1.6590     1.1043 C.3     
  23 C23            2.2889     4.2715    -0.0835 C.3     
  24 C24            3.1809     3.8733     1.0953 C.3     
  25 C25            0.8779     3.7033     3.7166 C.2     
  26 C26           -0.3977     4.3557     4.1005 C.2     
  27 O27            1.6589     3.3439     4.5751 O.2     
  28 C28           -0.8535     4.6321     5.4196 C.2     
  29 C29           -2.0545     5.2263     5.2312 C.2     
  30 O30           -2.2544     5.2779     3.9070 O.3     
  31 N31           -1.3293     4.7989     3.2934 N.2     
  32 H32            0.9412    -0.5373    -0.0105 H       
  33 H33           -1.2111    -1.7770     0.0042 H       
  34 H34           -5.2206    -1.7080    -0.4681 H       
  35 H35           -3.5601    -2.3488    -0.4897 H       
  36 H36           -6.3629    -1.2712     1.7106 H       
  37 H37           -5.5162    -1.6008     3.2412 H       
  38 H38           -5.0039    -0.2388     2.2161 H       
  39 H39           -4.2793    -4.2606     0.9492 H       
  40 H40           -5.0931    -3.9494     2.5013 H       
  41 H41           -5.9398    -3.6198     0.9707 H       
  42 H42           -5.1569     3.3238     0.0736 H       
  43 H43           -3.6727     3.7670     0.9506 H       
  44 H44           -3.6916     3.7774    -0.8293 H       
  45 H45           -2.6732    -1.1383     2.1859 H       
  46 H46           -3.1855    -2.5003     3.2109 H       
  47 H47           -2.3717    -2.8115     1.6588 H       
  48 H48            0.3110     3.8102    -0.8290 H       
  49 H49            0.1021     5.0036     1.3661 H       
  50 H50           -0.6937     3.4044     1.4209 H       
  51 H51            3.0256     2.5551     2.8311 H       
  52 H52            1.5260     0.9230     1.7124 H       
  53 H53            2.9583     1.2100     0.6982 H       
  54 H54            2.7826     4.0049    -1.0180 H       
  55 H55            2.1156     5.3474    -0.0598 H       
  56 H56            3.4257     4.7583     1.6827 H       
  57 H57            4.0974     3.4170     0.7214 H       
  58 H58           -0.3566     4.4173     6.3541 H       
  59 H59           -2.7226     5.5881     5.9988 H       
@<TRIPOS>BOND
   1    1    2 ar
   2    1   11 1
   3    1    6 ar
   4    2    3 ar
   5    2   32 1
   6    3    4 ar
   7    3   33 1
   8    4    5 ar
   9    4    7 1
  10    5    6 ar
  11    5    9 1
  12    7    8 am
  13    7   10 1
  14    8    9 am
  15    8   16 2
  16    9   15 1
  17   10   12 1
  18   10   34 1
  19   10   35 1
  20   11   18 1
  21   11   22 1
  22   12   13 1
  23   12   17 1
  24   12   14 1
  25   13   36 1
  26   13   37 1
  27   13   38 1
  28   14   39 1
  29   14   40 1
  30   14   41 1
  31   15   42 1
  32   15   43 1
  33   15   44 1
  34   17   45 1
  35   17   46 1
  36   17   47 1
  37   18   19 1
  38   18   23 1
  39   18   48 1
  40   19   20 1
  41   19   49 1
  42   19   50 1
  43   20   21 1
  44   20   25 am
  45   21   22 1
  46   21   24 1
  47   21   51 1
  48   22   52 1
  49   22   53 1
  50   23   24 1
  51   23   54 1
  52   23   55 1
  53   24   56 1
  54   24   57 1
  55   25   26 1
  56   25   27 2
  57   26   28 1
  58   26   31 2
  59   28   29 2
  60   28   58 1
  61   29   30 1
  62   29   59 1
  63   30   31 1

#	End of record

