#	Name: ASD03091696
#	Creating user name:	WinNT
#	Creation time:	15. 06. 2019 20:31

#	Modifying user name:	WinNT
#	Modification time:	15. 06. 2019 20:31

#	Program:	/corina/corina34_cracker 3.40 0067  02.08.2006

@<TRIPOS>MOLECULE
ASD03091696
  61   63    0    0    0
SMALL
NO_CHARGES


@<TRIPOS>ATOM
   1 C1            -0.0653     1.3763    -0.2018 C.2     
   2 C2             0.0351     0.0525     0.0400 C.2     
   3 N3            -1.1164    -0.5494     0.2450 N.2     
   4 C4            -2.1857     0.1863     0.1910 C.2     
   5 S5            -1.7714     1.8113    -0.1406 S.3     
   6 N6            -3.4747    -0.2777     0.3808 N.3     
   7 C7            -4.4517     0.8134     0.2525 C.3     
   8 C8            -3.6077    -0.9454     1.6838 C.3     
   9 C9            -5.0297    -1.4945     1.8269 C.3     
  10 O10           -5.9663    -0.4255     1.6683 O.3     
  11 C11           -5.8651     0.2467     0.4100 C.3     
  12 C12           -6.8822     1.3885     0.3575 C.3     
  13 C13           -5.2783    -2.5552     0.7527 C.3     
  14 C14            1.0568     2.2983    -0.4648 C.ar    
  15 C15            1.0149     3.1957    -1.5402 C.ar    
  16 C16            2.1916     2.3049     0.3574 C.ar    
  17 C17            3.2155     3.1829     0.0752 C.ar    
  18 N18            3.1370     4.0089    -0.9517 N.ar    
  19 C19            2.0847     4.0389    -1.7484 C.ar    
  20 C20            1.3546    -0.6747     0.0725 C.3     
  21 C21            4.4417     3.2007     0.9511 C.3     
  22 N22            1.8273    -0.7673     1.4561 N.am    
  23 C23            2.9955    -1.3811     1.7295 C.2     
  24 C24            3.4817    -1.4764     3.1528 C.3     
  25 O25            3.6556    -1.8569     0.8301 O.2     
  26 C26            2.0555     5.0049    -2.9048 C.3     
  27 C27            5.3150    -2.3113     4.6307 C.3     
  28 C28            4.8214    -2.2146     3.1858 C.3     
  29 C29            6.6547    -3.0496     4.6637 C.3     
  30 H30           -4.2696     1.5580     1.0274 H       
  31 H31           -4.3527     1.2770    -0.7290 H       
  32 H32           -2.8927    -1.7657     1.7471 H       
  33 H33           -3.4122    -0.2289     2.4816 H       
  34 H34           -5.1500    -1.9403     2.8143 H       
  35 H35           -6.0665    -0.4584    -0.3965 H       
  36 H36           -6.6785     2.0938     1.1632 H       
  37 H37           -6.8045     1.9003    -0.6017 H       
  38 H38           -7.8880     0.9848     0.4735 H       
  39 H39           -4.5616    -3.3679     0.8718 H       
  40 H40           -6.2907    -2.9458     0.8552 H       
  41 H41           -5.1595    -2.1078    -0.2341 H       
  42 H42            0.1573     3.2258    -2.1961 H       
  43 H43            2.2624     1.6325     1.1996 H       
  44 H44            1.2271    -1.6773    -0.3357 H       
  45 H45            2.0849    -0.1292    -0.5251 H       
  46 H46            5.1776     2.4980     0.5603 H       
  47 H47            4.8669     4.2043     0.9606 H       
  48 H48            4.1675     2.9127     1.9660 H       
  49 H49            1.2994    -0.3867     2.1754 H       
  50 H50            3.6092    -0.4738     3.5610 H       
  51 H51            2.7514    -2.0219     3.7504 H       
  52 H52            2.4848     4.5291    -3.7865 H       
  53 H53            1.0247     5.2920    -3.1124 H       
  54 H54            2.6359     5.8921    -2.6518 H       
  55 H55            5.4425    -1.3087     5.0390 H       
  56 H56            4.5847    -2.8568     5.2284 H       
  57 H57            4.6939    -3.2172     2.7775 H       
  58 H58            5.5517    -1.6691     2.5881 H       
  59 H59            6.5272    -4.0522     4.2555 H       
  60 H60            7.3849    -2.5041     4.0661 H       
  61 H61            7.0063    -3.1185     5.6932 H       
@<TRIPOS>BOND
   1    1    2 2
   2    1   14 1
   3    1    5 1
   4    2    3 1
   5    2   20 1
   6    3    4 2
   7    4    5 1
   8    4    6 1
   9    6    7 1
  10    6    8 1
  11    7   11 1
  12    7   30 1
  13    7   31 1
  14    8    9 1
  15    8   32 1
  16    8   33 1
  17    9   10 1
  18    9   13 1
  19    9   34 1
  20   10   11 1
  21   11   12 1
  22   11   35 1
  23   12   36 1
  24   12   37 1
  25   12   38 1
  26   13   39 1
  27   13   40 1
  28   13   41 1
  29   14   15 ar
  30   14   16 ar
  31   15   19 ar
  32   15   42 1
  33   16   17 ar
  34   16   43 1
  35   17   18 ar
  36   17   21 1
  37   18   19 ar
  38   19   26 1
  39   20   22 1
  40   20   44 1
  41   20   45 1
  42   21   46 1
  43   21   47 1
  44   21   48 1
  45   22   23 am
  46   22   49 1
  47   23   24 1
  48   23   25 2
  49   24   28 1
  50   24   50 1
  51   24   51 1
  52   26   52 1
  53   26   53 1
  54   26   54 1
  55   27   28 1
  56   27   29 1
  57   27   55 1
  58   27   56 1
  59   28   57 1
  60   28   58 1
  61   29   59 1
  62   29   60 1
  63   29   61 1

#	End of record

