#	Name: ASD03430986
#	Creating user name:	WinNT
#	Creation time:	15. 06. 2019 20:41

#	Modifying user name:	WinNT
#	Modification time:	15. 06. 2019 20:41

#	Program:	/corina/corina34_cracker 3.40 0067  02.08.2006

@<TRIPOS>MOLECULE
ASD03430986
  51   56    0    0    0
SMALL
NO_CHARGES


@<TRIPOS>ATOM
   1 O1             0.5813     1.2158    -0.5988 O.3     
   2 C2             0.8158    -0.1897    -0.7397 C.3     
   3 C3             1.7692    -0.6316     0.3787 C.3     
   4 O4             2.9893     0.1052     0.2458 O.3     
   5 C5             2.8760     1.4465     0.0405 C.ar    
   6 C6             1.6744     1.9996    -0.3866 C.ar    
   7 C7             3.9727     2.2621     0.2637 C.ar    
   8 C8             3.8850     3.6349     0.0560 C.ar    
   9 C9             2.6822     4.1749    -0.3892 C.ar    
  10 C10            1.5860     3.3661    -0.6027 C.ar    
  11 O11            4.8260     4.6058     0.2349 O.3     
  12 C12            2.9103     5.6536    -0.5542 C.3     
  13 C13            4.4387     5.7834    -0.4987 C.3     
  14 N14            1.4815     7.1486    -1.5284 N.am    
  15 C15            2.3542     6.1729    -1.8492 C.2     
  16 C16            2.2397     6.4598     0.5179 C.ar    
  17 C17            2.3187     6.4678     1.8927 C.ar    
  18 C18            1.5526     7.3562     2.6260 C.ar    
  19 C19            0.7071     8.2362     1.9752 C.ar    
  20 C20            0.6240     8.2321     0.5985 C.ar    
  21 C21            1.3916     7.3412    -0.1477 C.ar    
  22 O22            2.6353     5.7893    -2.9650 O.2     
  23 C23            0.7162     7.9175    -2.5129 C.3     
  24 C24           -0.6338     7.2778    -2.7106 C.ar    
  25 C25           -1.5552     7.8574    -3.5630 C.ar    
  26 C26           -2.7935     7.2707    -3.7443 C.ar    
  27 C27           -3.1105     6.1040    -3.0737 C.ar    
  28 C28           -2.1890     5.5240    -2.2224 C.ar    
  29 C29           -0.9488     6.1086    -2.0443 C.ar    
  30 C30           -1.2097     9.1292    -4.2939 C.3     
  31 F31           -2.2847     9.5074    -5.1054 F       
  32 F32           -0.9460    10.1430    -3.3667 F       
  33 F33           -0.0776     8.9177    -5.0882 F       
  34 H34           -0.1269    -0.7301    -0.6541 H       
  35 H35            1.2690    -0.3914    -1.7103 H       
  36 H36            1.3184    -0.4240     1.3492 H       
  37 H37            1.9725    -1.6986     0.2881 H       
  38 H38            4.9027     1.8293     0.6017 H       
  39 H39            0.6554     3.7987    -0.9393 H       
  40 H40            4.7311     6.6866     0.0369 H       
  41 H41            4.8647     5.7720    -1.5019 H       
  42 H42            2.9792     5.7795     2.3991 H       
  43 H43            1.6144     7.3624     3.7042 H       
  44 H44            0.1088     8.9296     2.5477 H       
  45 H45           -0.0386     8.9222     0.0973 H       
  46 H46            0.5855     8.9386    -2.1544 H       
  47 H47            1.2541     7.9314    -3.4608 H       
  48 H48           -3.5135     7.7239    -4.4096 H       
  49 H49           -4.0783     5.6459    -3.2149 H       
  50 H50           -2.4368     4.6128    -1.6983 H       
  51 H51           -0.2274     5.6534    -1.3819 H       
@<TRIPOS>BOND
   1    1    2 1
   2    1    6 1
   3    2    3 1
   4    2   34 1
   5    2   35 1
   6    3    4 1
   7    3   36 1
   8    3   37 1
   9    4    5 1
  10    5    6 ar
  11    5    7 ar
  12    6   10 ar
  13    7    8 ar
  14    7   38 1
  15    8    9 ar
  16    8   11 1
  17    9   10 ar
  18    9   12 1
  19   10   39 1
  20   11   13 1
  21   12   13 1
  22   12   15 1
  23   12   16 1
  24   13   40 1
  25   13   41 1
  26   14   15 am
  27   14   21 1
  28   14   23 1
  29   15   22 2
  30   16   17 ar
  31   16   21 ar
  32   17   18 ar
  33   17   42 1
  34   18   19 ar
  35   18   43 1
  36   19   20 ar
  37   19   44 1
  38   20   21 ar
  39   20   45 1
  40   23   24 1
  41   23   46 1
  42   23   47 1
  43   24   25 ar
  44   24   29 ar
  45   25   26 ar
  46   25   30 1
  47   26   27 ar
  48   26   48 1
  49   27   28 ar
  50   27   49 1
  51   28   29 ar
  52   28   50 1
  53   29   51 1
  54   30   31 1
  55   30   32 1
  56   30   33 1

#	End of record

