#	Name: ASD01470026
#	Creating user name:	WinNT
#	Creation time:	15. 06. 2019 19:21

#	Modifying user name:	WinNT
#	Modification time:	15. 06. 2019 19:21

#	Program:	/corina/corina34_cracker 3.40 0067  02.08.2006

@<TRIPOS>MOLECULE
ASD01470026
  80   85    0    0    0
SMALL
NO_CHARGES


@<TRIPOS>ATOM
   1 N1            -1.6143     1.3721     0.6479 N.am    
   2 C2            -0.2772     0.9162     0.2776 C.3     
   3 C3             0.2403    -0.1236     1.2814 C.3     
   4 C4            -0.2279    -1.5286     0.9352 C.3     
   5 C5            -1.5852    -1.5113     0.2518 C.3     
   6 N6            -2.5616    -0.7714     1.0523 N.am    
   7 C7            -2.5864     0.5729     1.0573 C.2     
   8 O8            -3.6006     1.1034     1.4676 O.2     
   9 C9            -3.5284    -1.5092     1.8691 C.3     
  10 C10           -1.8958     2.8074     0.5664 C.3     
  11 C11           -1.6510     3.4444     1.9101 C.ar    
  12 C12           -2.9969    -1.6498     3.2722 C.ar    
  13 C13           -3.1503    -0.6240     4.1590 C.ar    
  14 C14           -2.6567    -0.7559     5.4619 C.ar    
  15 C15           -2.0072    -1.9455     5.8437 C.ar    
  16 C16           -1.8658    -2.9756     4.9168 C.ar    
  17 C17           -2.3603    -2.8251     3.6525 C.ar    
  18 C18           -0.3741     3.8373     2.2650 C.ar    
  19 C19           -0.1443     4.4224     3.4973 C.ar    
  20 C20           -1.1922     4.6164     4.3777 C.ar    
  21 C21           -2.4782     4.2222     4.0224 C.ar    
  22 C22           -2.7044     3.6400     2.7830 C.ar    
  23 C23           -2.6452     0.1123     6.6348 C.2     
  24 N24           -2.0431    -0.5268     7.5968 N.2     
  25 N25           -1.6372    -1.7900     7.1540 N.pl3   
  26 C26           -0.3267     0.2892    -1.1172 C.3     
  27 O27            1.6690    -0.0974     1.2822 O.3     
  28 C28            0.5568     1.0741    -2.0524 C.ar    
  29 C29            1.8604     0.6706    -2.2733 C.ar    
  30 C30            2.6708     1.3905    -3.1311 C.ar    
  31 C31            2.1774     2.5136    -3.7684 C.ar    
  32 C32            0.8736     2.9166    -3.5482 C.ar    
  33 C33            0.0618     2.1941    -2.6938 C.ar    
  34 C34           -2.0734    -2.9492     0.0644 C.3     
  35 O35           -0.3190    -2.2994     2.1351 O.3     
  36 C36           -1.1432    -3.6776    -0.8711 C.ar    
  37 C37           -0.0203    -4.3123    -0.3739 C.ar    
  38 C38            0.8330    -4.9804    -1.2320 C.ar    
  39 C39            0.5632    -5.0141    -2.5874 C.ar    
  40 C40           -0.5601    -4.3802    -3.0845 C.ar    
  41 C41           -1.4157    -3.7158    -2.2258 C.ar    
  42 N42           -3.5413     4.4165     4.9099 N.pl3   
  43 C43           -4.8734     3.9034     4.5808 C.3     
  44 F44           -0.9678     5.1874     5.5813 F       
  45 H45            0.4015     1.7691     0.2621 H       
  46 H46           -0.1210     0.1348     2.2768 H       
  47 H47            0.5001    -1.9928     0.2698 H       
  48 H48           -1.4892    -1.0376    -0.7252 H       
  49 H49           -4.4738    -0.9672     1.8913 H       
  50 H50           -3.6868    -2.4985     1.4397 H       
  51 H51           -1.2423     3.2643    -0.1767 H       
  52 H52           -2.9359     2.9578     0.2771 H       
  53 H53           -3.6495     0.2848     3.8569 H       
  54 H54           -1.3691    -3.8924     5.1982 H       
  55 H55           -2.2486    -3.6266     2.9373 H       
  56 H56            0.4461     3.6867     1.5788 H       
  57 H57            0.8547     4.7275     3.7718 H       
  58 H58           -3.7015     3.3328     2.5040 H       
  59 H59           -3.0615     1.1070     6.6945 H       
  60 H60           -1.1691    -2.4501     7.6887 H       
  61 H61            0.0244    -0.7414    -1.0649 H       
  62 H62           -1.3520     0.3055    -1.4867 H       
  63 H63            2.0737    -0.7284     1.8930 H       
  64 H64            2.2458    -0.2068    -1.7754 H       
  65 H65            3.6894     1.0757    -3.3031 H       
  66 H66            2.8108     3.0765    -4.4381 H       
  67 H67            0.4882     3.7942    -4.0459 H       
  68 H68           -0.9569     2.5089    -2.5217 H       
  69 H69           -2.0888    -3.4563     1.0291 H       
  70 H70           -3.0785    -2.9396    -0.3572 H       
  71 H71            0.5173    -2.3831     2.6132 H       
  72 H72            0.1905    -4.2859     0.6850 H       
  73 H73            1.7106    -5.4756    -0.8436 H       
  74 H74            1.2302    -5.5355    -3.2579 H       
  75 H75           -0.7707    -4.4063    -4.1435 H       
  76 H76           -2.2934    -3.2205    -2.6142 H       
  77 H77           -3.3966     4.8911     5.7435 H       
  78 H78           -5.1836     4.2932     3.6113 H       
  79 H79           -4.8440     2.8145     4.5422 H       
  80 H80           -5.5838     4.2209     5.3442 H       
@<TRIPOS>BOND
   1    1    2 1
   2    1   10 1
   3    1    7 am
   4    2    3 1
   5    2   26 1
   6    2   45 1
   7    3    4 1
   8    3   27 1
   9    3   46 1
  10    4    5 1
  11    4   35 1
  12    4   47 1
  13    5    6 1
  14    5   34 1
  15    5   48 1
  16    6    7 am
  17    6    9 1
  18    7    8 2
  19    9   12 1
  20    9   49 1
  21    9   50 1
  22   10   11 1
  23   10   51 1
  24   10   52 1
  25   11   18 ar
  26   11   22 ar
  27   12   13 ar
  28   12   17 ar
  29   13   14 ar
  30   13   53 1
  31   14   15 ar
  32   14   23 1
  33   15   16 ar
  34   15   25 1
  35   16   17 ar
  36   16   54 1
  37   17   55 1
  38   18   19 ar
  39   18   56 1
  40   19   20 ar
  41   19   57 1
  42   20   21 ar
  43   20   44 1
  44   21   22 ar
  45   21   42 1
  46   22   58 1
  47   23   24 2
  48   23   59 1
  49   24   25 1
  50   25   60 1
  51   26   28 1
  52   26   61 1
  53   26   62 1
  54   27   63 1
  55   28   29 ar
  56   28   33 ar
  57   29   30 ar
  58   29   64 1
  59   30   31 ar
  60   30   65 1
  61   31   32 ar
  62   31   66 1
  63   32   33 ar
  64   32   67 1
  65   33   68 1
  66   34   36 1
  67   34   69 1
  68   34   70 1
  69   35   71 1
  70   36   37 ar
  71   36   41 ar
  72   37   38 ar
  73   37   72 1
  74   38   39 ar
  75   38   73 1
  76   39   40 ar
  77   39   74 1
  78   40   41 ar
  79   40   75 1
  80   41   76 1
  81   42   43 1
  82   42   77 1
  83   43   78 1
  84   43   79 1
  85   43   80 1

#	End of record

