#	Name: ASD02038662
#	Creating user name:	WinNT
#	Creation time:	15. 06. 2019 20:17

#	Modifying user name:	WinNT
#	Modification time:	15. 06. 2019 20:17

#	Program:	/corina/corina34_cracker 3.40 0067  02.08.2006

@<TRIPOS>MOLECULE
ASD02038662
  48   49    0    0    0
SMALL
NO_CHARGES


@<TRIPOS>ATOM
   1 C1            -0.0090     1.3742    -0.2299 C.ar    
   2 C2            -0.0025     0.0035    -0.0168 C.ar    
   3 O3            -1.1723    -0.6896    -0.0156 O.3     
   4 C4            -1.0915    -2.0983     0.2101 C.3     
   5 C5            -2.4970    -2.7018     0.1761 C.3     
   6 C6            -2.4239    -4.1859     0.5406 C.3     
   7 N7            -3.7734    -4.7653     0.5079 N.3     
   8 C8            -3.7420    -6.1927     0.8534 C.3     
   9 C9            -5.1624    -6.7596     0.8088 C.3     
  10 C10            1.1787     2.0787    -0.2314 C.ar    
  11 C11            2.3796     1.4148    -0.0194 C.ar    
  12 C12            2.3854     0.0428     0.1938 C.ar    
  13 C13            1.1970    -0.6606     0.1945 C.ar    
  14 O14           -3.0446    -2.5600    -1.1362 O.3     
  15 N15            3.5850     2.1289    -0.0212 N.am    
  16 C16            3.6278     3.3800     0.4780 C.2     
  17 O17            2.6074     3.9195     0.8508 O.2     
  18 C18           -5.2622    -8.6185     2.4812 C.ar    
  19 C19           -5.2331    -9.9627     2.8071 C.ar    
  20 C20           -5.1302    -8.2239     1.1633 C.ar    
  21 C21           -4.9691    -9.1720     0.1698 C.ar    
  22 C22           -4.9399   -10.5153     0.4936 C.ar    
  23 C23           -5.0718   -10.9120     1.8123 C.ar    
  24 Cl24          -5.0358   -12.5992     2.2195 Cl      
  25 Cl25          -5.3983   -10.4589     4.4625 Cl      
  26 C26            4.9435     4.1088     0.5730 C.3     
  27 Cl27           4.6973     5.6869     1.4095 Cl      
  28 Cl28           6.1177     3.1098     1.5078 Cl      
  29 H29           -0.9427     1.8898    -0.3992 H       
  30 H30           -0.4804    -2.5565    -0.5676 H       
  31 H31           -0.6395    -2.2849     1.1843 H       
  32 H32           -3.1328    -2.1825     0.8931 H       
  33 H33           -1.7881    -4.7052    -0.1765 H       
  34 H34           -2.0062    -4.2941     1.5415 H       
  35 H35           -4.3989    -4.2594     1.1169 H       
  36 H36           -3.1153    -6.7259     0.1386 H       
  37 H37           -3.3335    -6.3148     1.8566 H       
  38 H38           -5.7891    -6.2264     1.5237 H       
  39 H39           -5.5709    -6.6375    -0.1944 H       
  40 H40            1.1735     3.1458    -0.3976 H       
  41 H41            3.3191    -0.4743     0.3584 H       
  42 H42            1.2014    -1.7277     0.3604 H       
  43 H43           -2.5291    -2.9983    -1.8270 H       
  44 H44            4.3888     1.7227    -0.3817 H       
  45 H45           -5.3924    -7.8777     3.2562 H       
  46 H46           -4.8665    -8.8626    -0.8598 H       
  47 H47           -4.8144   -11.2553    -0.2830 H       
  48 H48            5.3340     4.2858    -0.4291 H       
@<TRIPOS>BOND
   1    1    2 ar
   2    1   10 ar
   3    1   29 1
   4    2    3 1
   5    2   13 ar
   6    3    4 1
   7    4    5 1
   8    4   30 1
   9    4   31 1
  10    5    6 1
  11    5   14 1
  12    5   32 1
  13    6    7 1
  14    6   33 1
  15    6   34 1
  16    7    8 1
  17    7   35 1
  18    8    9 1
  19    8   36 1
  20    8   37 1
  21    9   20 1
  22    9   38 1
  23    9   39 1
  24   10   11 ar
  25   10   40 1
  26   11   12 ar
  27   11   15 1
  28   12   13 ar
  29   12   41 1
  30   13   42 1
  31   14   43 1
  32   15   16 am
  33   15   44 1
  34   16   17 2
  35   16   26 1
  36   18   20 ar
  37   18   19 ar
  38   18   45 1
  39   19   25 1
  40   19   23 ar
  41   20   21 ar
  42   21   22 ar
  43   21   46 1
  44   22   23 ar
  45   22   47 1
  46   23   24 1
  47   26   27 1
  48   26   28 1
  49   26   48 1

#	End of record

