#	Name: ASD03570014
#	Creating user name:	WinNT
#	Creation time:	15. 06. 2019 20:43

#	Modifying user name:	WinNT
#	Modification time:	15. 06. 2019 20:43

#	Program:	/corina/corina34_cracker 3.40 0067  02.08.2006

@<TRIPOS>MOLECULE
ASD03570014
  28   29    0    0    0
SMALL
NO_CHARGES


@<TRIPOS>ATOM
   1 C1            -0.0168     1.3864     0.0097 C.ar    
   2 C2             0.0021    -0.0041     0.0020 C.ar    
   3 C3             1.1982    -0.6899    -0.0126 C.ar    
   4 C4             2.3997     0.0148    -0.0203 C.ar    
   5 C5             2.3764     1.4231    -0.0130 C.ar    
   6 C6             1.1474     2.0970     0.0024 C.ar    
   7 N7             3.7184    -0.3748    -0.0353 N.pl3   
   8 C8             4.5157     0.7542    -0.0375 C.2     
   9 C9             3.7229     1.8588    -0.0241 C.2     
  10 C10            4.1937     3.2904    -0.0224 C.3     
  11 C11            4.3385     3.7814    -1.4642 C.3     
  12 Cl12          -1.4940    -0.8845     0.0115 Cl      
  13 Cl13           1.2067    -2.4258    -0.0208 Cl      
  14 C14            4.8093     5.2130    -1.4624 C.2     
  15 O15            5.0084     5.7822    -0.4154 O.2     
  16 O16            5.0073     5.8559    -2.6240 O.3     
  17 C17            5.9842     0.7599    -0.0520 C.2     
  18 O18            6.5880     1.8151    -0.0523 O.2     
  19 O19            6.6629    -0.4053    -0.0651 O.3     
  20 H20           -0.9621     1.9086     0.0170 H       
  21 H21            1.1224     3.1767     0.0077 H       
  22 H22            4.0367    -1.2911    -0.0427 H       
  23 H23            3.4669     3.9112     0.5016 H       
  24 H24            5.1577     3.3553     0.4822 H       
  25 H25            5.0653     3.1606    -1.9881 H       
  26 H26            3.3745     3.7166    -1.9687 H       
  27 H27            5.3094     6.7730    -2.5723 H       
  28 H28            7.6283    -0.3509    -0.0744 H       
@<TRIPOS>BOND
   1    1    2 ar
   2    1    6 ar
   3    1   20 1
   4    2    3 ar
   5    2   12 1
   6    3    4 ar
   7    3   13 1
   8    4    5 ar
   9    4    7 1
  10    5    6 ar
  11    5    9 1
  12    6   21 1
  13    7    8 1
  14    7   22 1
  15    8    9 2
  16    8   17 1
  17    9   10 1
  18   10   11 1
  19   10   23 1
  20   10   24 1
  21   11   14 1
  22   11   25 1
  23   11   26 1
  24   14   15 2
  25   14   16 1
  26   16   27 1
  27   17   18 2
  28   17   19 1
  29   19   28 1

#	End of record

