#	Name: ASD08070298
#	Creating user name:	WinNT
#	Creation time:	15. 06. 2019 21:14

#	Modifying user name:	WinNT
#	Modification time:	15. 06. 2019 21:14

#	Program:	/corina/corina34_cracker 3.40 0067  02.08.2006

@<TRIPOS>MOLECULE
ASD08070298
  40   41    0    0    0
SMALL
NO_CHARGES


@<TRIPOS>ATOM
   1 C1            -0.0184     1.5028     0.0103 C.2     
   2 C2             0.0021    -0.0041     0.0020 C.3     
   3 O3             1.0197     2.1211     0.0037 O.2     
   4 O4            -1.1898     2.1580     0.0194 O.3     
   5 C5            -1.1335     3.6089     0.0270 C.3     
   6 C6            -2.5551     4.1744     0.0369 C.3     
   7 C7            -3.3404     3.6006    -1.1442 C.3     
   8 C8            -4.7199     4.2593    -1.2077 C.3     
   9 C9            -5.5052     3.6855    -2.3887 C.3     
  10 C10           -4.2308     4.5593     1.7635 C.2     
  11 O11           -4.5931     5.5450     1.1508 O.2     
  12 N12           -3.2187     3.8058     1.2898 N.am    
  13 O13           -7.6007     5.1965     5.3858 O.3     
  14 C14           -7.5351     4.6445     6.7140 C.3     
  15 O15           -6.9194     3.3576     6.5204 O.3     
  16 C16           -6.1532     3.4841     5.3996 C.ar    
  17 C17           -6.5722     4.6168     4.6998 C.ar    
  18 C18           -5.9491     4.9679     3.5186 C.ar    
  19 C19           -4.8994     4.1878     3.0259 C.ar    
  20 C20           -4.4849     3.0556     3.7308 C.ar    
  21 C21           -5.1109     2.7097     4.9088 C.ar    
  22 H22            0.0168    -0.3729     1.0276 H       
  23 H23           -0.8878    -0.3767    -0.5053 H       
  24 H24            0.8920    -0.3525    -0.5222 H       
  25 H25           -0.6017     3.9472     0.9164 H       
  26 H26           -0.6102     3.9569    -0.8636 H       
  27 H27           -2.5147     5.2605    -0.0470 H       
  28 H28           -2.8004     3.7984    -2.0701 H       
  29 H29           -3.4572     2.5247    -1.0145 H       
  30 H30           -5.2600     4.0615    -0.2818 H       
  31 H31           -4.6031     5.3353    -1.3374 H       
  32 H32           -6.4880     4.1548    -2.4340 H       
  33 H33           -4.9652     3.8833    -3.3146 H       
  34 H34           -5.6220     2.6095    -2.2590 H       
  35 H35           -2.9296     3.0193     1.7786 H       
  36 H36           -6.9186     5.2707     7.3588 H       
  37 H37           -8.5356     4.5314     7.1314 H       
  38 H38           -6.2726     5.8440     2.9762 H       
  39 H39           -3.6742     2.4507     3.3523 H       
  40 H40           -4.7888     1.8338     5.4524 H       
@<TRIPOS>BOND
   1    1    2 1
   2    1    3 2
   3    1    4 1
   4    2   22 1
   5    2   23 1
   6    2   24 1
   7    4    5 1
   8    5    6 1
   9    5   25 1
  10    5   26 1
  11    6    7 1
  12    6   12 1
  13    6   27 1
  14    7    8 1
  15    7   28 1
  16    7   29 1
  17    8    9 1
  18    8   30 1
  19    8   31 1
  20    9   32 1
  21    9   33 1
  22    9   34 1
  23   10   11 2
  24   10   12 am
  25   10   19 1
  26   12   35 1
  27   13   14 1
  28   13   17 1
  29   14   15 1
  30   14   36 1
  31   14   37 1
  32   15   16 1
  33   16   17 ar
  34   16   21 ar
  35   17   18 ar
  36   18   19 ar
  37   18   38 1
  38   19   20 ar
  39   20   21 ar
  40   20   39 1
  41   21   40 1

#	End of record

