#	Name: ASD01411016
#	Creating user name:	WinNT
#	Creation time:	15. 06. 2019 19:19

#	Modifying user name:	WinNT
#	Modification time:	15. 06. 2019 19:19

#	Program:	/corina/corina34_cracker 3.40 0067  02.08.2006

@<TRIPOS>MOLECULE
ASD01411016
  97  106    0    0    0
SMALL
NO_CHARGES


@<TRIPOS>ATOM
   1 C1             0.4682     1.6771    -0.0162 C.ar    
   2 C2             0.7338     0.2915    -0.0157 C.ar    
   3 C3            -0.3175    -0.6207    -0.0121 C.ar    
   4 C4            -1.6076    -0.1797    -0.0091 C.ar    
   5 C5            -1.8912     1.1942    -0.0100 C.ar    
   6 C6            -0.8578     2.1225    -0.0083 C.ar    
   7 N7             1.6546     2.3112    -0.0194 N.2     
   8 C8             2.6250     1.4320    -0.0210 C.2     
   9 N9             2.1017     0.1646    -0.0187 N.pl3   
  10 C10            2.8591    -1.0894    -0.0195 C.3     
  11 C11            2.5859    -1.8511     1.2790 C.3     
  12 C12            3.3769    -3.1607     1.2782 C.3     
  13 C13            2.9461    -4.0160     0.0849 C.3     
  14 C14            3.2194    -3.2543    -1.2136 C.3     
  15 C15            2.4284    -1.9447    -1.2128 C.3     
  16 C16           -3.2943     1.6556    -0.0071 C.2     
  17 O17           -3.5429     2.8456    -0.0079 O.2     
  18 N18           -4.2990     0.7573    -0.0037 N.am    
  19 C19           -5.6907     1.2149    -0.0009 C.3     
  20 C20           -6.5850     0.1316    -0.6071 C.3     
  21 C21           -6.1259     1.4910     1.4153 C.2     
  22 C22           -6.2305    -0.0577    -2.0596 C.2     
  23 C23           -6.8301     0.5247    -3.1101 C.2     
  24 N24           -6.2373     0.1135    -4.2724 N.pl3   
  25 C25           -5.2143    -0.7672    -3.9903 C.ar    
  26 C26           -5.1624    -0.9071    -2.5920 C.ar    
  27 C27           -4.3108    -1.4672    -4.7832 C.ar    
  28 C28           -3.3786    -2.2944    -4.1982 C.ar    
  29 C29           -3.3286    -2.4399    -2.8141 C.ar    
  30 C30           -4.2118    -1.7484    -2.0094 C.ar    
  31 O31           -2.4014    -3.2611    -2.2525 O.3     
  32 C32            4.0669     1.7567    -0.0246 C.2     
  33 C33           -5.2903     1.4178     2.4556 C.2     
  34 S34           -6.2010     1.8124     3.9115 S.3     
  35 C35           -7.6148     2.0366     2.9765 C.2     
  36 N36           -7.3602     1.8299     1.7285 N.2     
  37 O37            4.8901     0.8697     0.0920 O.2     
  38 C38            4.5071     3.1569    -0.1696 C.ar    
  39 C39            5.8562     3.4788    -0.0358 C.ar    
  40 C40            6.2628     4.8052    -0.1750 C.ar    
  41 C41            5.3043     5.7998    -0.4488 C.ar    
  42 C42            3.9620     5.4598    -0.5791 C.ar    
  43 C43            3.5674     4.1605    -0.4476 C.ar    
  44 N44            7.4700     5.4209    -0.1032 N.2     
  45 C45            7.3194     6.7065    -0.3111 C.2     
  46 N46            5.9972     6.9894    -0.5297 N.pl3   
  47 C47            5.4251     8.3107    -0.8002 C.3     
  48 C48            4.6003     8.2722    -2.0986 C.3     
  49 C49            3.1540     8.6456    -1.7131 C.3     
  50 C50            3.3072     9.4532    -0.4004 C.3     
  51 C51            4.4513     8.7061     0.3290 C.3     
  52 C52            8.4119     7.7010    -0.3095 C.2     
  53 C53            9.8410     7.4496    -0.5386 C.2     
  54 C54           10.4469     8.6440    -0.4425 C.2     
  55 O55            9.5253     9.5832    -0.1794 O.3     
  56 C56            8.3029     9.0423    -0.1013 C.2     
  57 H57           -0.1107    -1.6808    -0.0121 H       
  58 H58           -2.4177    -0.8938    -0.0063 H       
  59 H59           -1.0765     3.1801    -0.0086 H       
  60 H60            3.9242    -0.8705    -0.0951 H       
  61 H61            2.8927    -1.2418     2.1291 H       
  62 H62            1.5207    -2.0700     1.3545 H       
  63 H63            4.4420    -2.9418     1.2026 H       
  64 H64            3.1822    -3.7033     2.2032 H       
  65 H65            3.5097    -4.9490     0.0843 H       
  66 H66            1.8810    -4.2349     0.1605 H       
  67 H67            4.2845    -3.0354    -1.2891 H       
  68 H68            2.9125    -3.8636    -2.0637 H       
  69 H69            1.3633    -2.1636    -1.1372 H       
  70 H70            2.6231    -1.4020    -2.1378 H       
  71 H71           -4.1007    -0.1922    -0.0031 H       
  72 H72           -5.7744     2.1274    -0.5911 H       
  73 H73           -6.4346    -0.8056    -0.0713 H       
  74 H74           -7.6290     0.4339    -0.5244 H       
  75 H75           -7.6581     1.2151    -3.0470 H       
  76 H76           -6.4980     0.3984    -5.1622 H       
  77 H77           -4.3409    -1.3620    -5.8576 H       
  78 H78           -2.6797    -2.8358    -4.8186 H       
  79 H79           -4.1718    -1.8619    -0.9361 H       
  80 H80           -1.5659    -2.8234    -2.0396 H       
  81 H81           -4.2419     1.1619     2.4118 H       
  82 H82           -8.5801     2.3155     3.3725 H       
  83 H83            6.5815     2.7066     0.1746 H       
  84 H84            3.2303     6.2261    -0.7887 H       
  85 H85            2.5234     3.9040    -0.5504 H       
  86 H86            6.2204     9.0513    -0.8848 H       
  87 H87            4.9947     8.9948    -2.8130 H       
  88 H88            4.6256     7.2705    -2.5275 H       
  89 H89            2.6993     9.2615    -2.4890 H       
  90 H90            2.5609     7.7474    -1.5414 H       
  91 H91            3.5922    10.4839    -0.6119 H       
  92 H92            2.3881     9.4177     0.1845 H       
  93 H93            4.0677     7.8176     0.8306 H       
  94 H94            4.9433     9.3661     1.0434 H       
  95 H95           10.3090     6.4979    -0.7428 H       
  96 H96           11.5061     8.8203    -0.5578 H       
  97 H97            7.3868     9.5779     0.0993 H       
@<TRIPOS>BOND
   1    1    2 ar
   2    1    7 1
   3    1    6 ar
   4    2    3 ar
   5    2    9 1
   6    3    4 ar
   7    3   57 1
   8    4    5 ar
   9    4   58 1
  10    5    6 ar
  11    5   16 1
  12    6   59 1
  13    7    8 2
  14    8    9 1
  15    8   32 1
  16    9   10 1
  17   10   11 1
  18   10   15 1
  19   10   60 1
  20   11   12 1
  21   11   61 1
  22   11   62 1
  23   12   13 1
  24   12   63 1
  25   12   64 1
  26   13   14 1
  27   13   65 1
  28   13   66 1
  29   14   15 1
  30   14   67 1
  31   14   68 1
  32   15   69 1
  33   15   70 1
  34   16   17 2
  35   16   18 am
  36   18   19 1
  37   18   71 1
  38   19   20 1
  39   19   21 1
  40   19   72 1
  41   20   22 1
  42   20   73 1
  43   20   74 1
  44   21   33 2
  45   21   36 1
  46   22   23 2
  47   22   26 1
  48   23   24 1
  49   23   75 1
  50   24   25 1
  51   24   76 1
  52   25   26 ar
  53   25   27 ar
  54   26   30 ar
  55   27   28 ar
  56   27   77 1
  57   28   29 ar
  58   28   78 1
  59   29   30 ar
  60   29   31 1
  61   30   79 1
  62   31   80 1
  63   32   37 2
  64   32   38 1
  65   33   34 1
  66   33   81 1
  67   34   35 1
  68   35   36 2
  69   35   82 1
  70   38   39 ar
  71   38   43 ar
  72   39   40 ar
  73   39   83 1
  74   40   41 ar
  75   40   44 1
  76   41   42 ar
  77   41   46 1
  78   42   43 ar
  79   42   84 1
  80   43   85 1
  81   44   45 2
  82   45   46 1
  83   45   52 1
  84   46   47 1
  85   47   48 1
  86   47   51 1
  87   47   86 1
  88   48   49 1
  89   48   87 1
  90   48   88 1
  91   49   50 1
  92   49   89 1
  93   49   90 1
  94   50   51 1
  95   50   91 1
  96   50   92 1
  97   51   93 1
  98   51   94 1
  99   52   53 1
 100   52   56 2
 101   53   54 2
 102   53   95 1
 103   54   55 1
 104   54   96 1
 105   55   56 1
 106   56   97 1

#	End of record

