#	Name: ASD01840533
#	Creating user name:	WinNT
#	Creation time:	15. 06. 2019 19:37

#	Modifying user name:	WinNT
#	Modification time:	15. 06. 2019 19:37

#	Program:	/corina/corina34_cracker 3.40 0067  02.08.2006

@<TRIPOS>MOLECULE
ASD01840533
  44   47    0    0    0
SMALL
NO_CHARGES


@<TRIPOS>ATOM
   1 C1             2.5857    -0.4088     1.0169 C.3     
   2 C2             1.3094    -1.0622     0.5530 C.ar    
   3 C3             1.2598    -1.6961    -0.6593 C.ar    
   4 C4             0.0518    -2.2908    -1.0520 C.ar    
   5 C5            -0.3493    -3.0341    -2.2548 C.2     
   6 O6             0.3787    -3.2769    -3.1969 O.2     
   7 O7            -1.6371    -3.4073    -2.1622 O.3     
   8 C8            -2.1754    -2.9382    -0.8958 C.3     
   9 C9            -1.0505    -2.2149    -0.1962 C.ar    
  10 N10           -0.9614    -1.5968     0.9597 N.ar    
  11 C11            0.1712    -1.0309     1.3575 C.ar    
  12 N12            0.2216    -0.3956     2.5864 N.3     
  13 C13           -0.7111     0.7378     2.6315 C.3     
  14 C14           -0.5246     1.5015     3.9445 C.3     
  15 C15           -0.7839     0.5560     5.1206 C.3     
  16 C16            0.1674    -0.6399     5.0231 C.3     
  17 C17           -0.0391    -1.3416     3.6789 C.3     
  18 O18           -0.5559     1.2487     6.3495 O.3     
  19 C19           -1.2047     0.7836     7.4494 C.ar    
  20 C20           -1.1204     1.4743     8.6496 C.ar    
  21 C21           -1.7812     0.9998     9.7661 C.ar    
  22 C22           -2.5257    -0.1627     9.6883 C.ar    
  23 C23           -2.6109    -0.8531     8.4933 C.ar    
  24 C24           -1.9570    -0.3794     7.3724 C.ar    
  25 H25            3.1500    -1.1097     1.6320 H       
  26 H26            3.1830    -0.1228     0.1511 H       
  27 H27            2.3473     0.4787     1.6030 H       
  28 H28            2.1297    -1.7369    -1.2981 H       
  29 H29           -3.0065    -2.2554    -1.0725 H       
  30 H30           -2.5074    -3.7843    -0.2941 H       
  31 H31           -0.5132     1.4045     1.7922 H       
  32 H32           -1.7347     0.3685     2.5683 H       
  33 H33            0.4949     1.8829     4.0020 H       
  34 H34           -1.2278     2.3334     3.9845 H       
  35 H35           -1.8152     0.2048     5.0852 H       
  36 H36            1.1978    -0.2922     5.0977 H       
  37 H37           -0.0413    -1.3379     5.8339 H       
  38 H38           -1.0658    -1.7011     3.6108 H       
  39 H39            0.6469    -2.1851     3.6004 H       
  40 H40           -0.5384     2.3820     8.7111 H       
  41 H41           -1.7158     1.5371    10.7007 H       
  42 H42           -3.0413    -0.5322    10.5623 H       
  43 H43           -3.1928    -1.7611     8.4352 H       
  44 H44           -2.0275    -0.9167     6.4382 H       
@<TRIPOS>BOND
   1    1    2 1
   2    1   25 1
   3    1   26 1
   4    1   27 1
   5    2   11 ar
   6    2    3 ar
   7    3    4 ar
   8    3   28 1
   9    4    9 ar
  10    4    5 1
  11    5    6 2
  12    5    7 1
  13    7    8 1
  14    8    9 1
  15    8   29 1
  16    8   30 1
  17    9   10 ar
  18   10   11 ar
  19   11   12 1
  20   12   17 1
  21   12   13 1
  22   13   14 1
  23   13   31 1
  24   13   32 1
  25   14   15 1
  26   14   33 1
  27   14   34 1
  28   15   16 1
  29   15   18 1
  30   15   35 1
  31   16   17 1
  32   16   36 1
  33   16   37 1
  34   17   38 1
  35   17   39 1
  36   18   19 1
  37   19   24 ar
  38   19   20 ar
  39   20   21 ar
  40   20   40 1
  41   21   22 ar
  42   21   41 1
  43   22   23 ar
  44   22   42 1
  45   23   24 ar
  46   23   43 1
  47   24   44 1

#	End of record

