#	Name: ASD02508024
#	Creating user name:	WinNT
#	Creation time:	15. 06. 2019 20:23

#	Modifying user name:	WinNT
#	Modification time:	15. 06. 2019 20:23

#	Program:	/corina/corina34_cracker 3.40 0067  02.08.2006

@<TRIPOS>MOLECULE
ASD02508024
  55   58    0    0    0
SMALL
NO_CHARGES


@<TRIPOS>ATOM
   1 C1            -0.1999     1.6718     0.4480 C.3     
   2 N2            -0.0948     0.2301     0.1827 N.am    
   3 C3             1.2134     2.2654     0.4972 C.3     
   4 N4             1.9531     1.8159    -0.6906 N.am    
   5 C5             2.0582     0.3742    -0.9559 C.3     
   6 C6             0.6449    -0.2194    -1.0050 C.3     
   7 C7             4.2930     3.1973    -1.1274 C.ar    
   8 C8             5.3346     2.4128    -1.5863 C.ar    
   9 C9             4.5351     4.2070    -0.2152 C.ar    
  10 C10            5.8199     4.4368     0.2404 C.ar    
  11 C11            6.8696     3.6550    -0.2176 C.ar    
  12 C12            6.6255     2.6370    -1.1323 C.ar    
  13 O13            8.1304     3.8981     0.2336 O.3     
  14 C14            9.0952     2.8582     0.0395 C.3     
  15 C15            8.9703     2.3494    -1.4029 C.3     
  16 O16            7.6400     1.8530    -1.5890 O.3     
  17 C17           -2.4350    -1.1508     0.6199 C.ar    
  18 C18           -2.6764    -2.1572    -0.2972 C.ar    
  19 C19           -3.4773    -0.3693     1.0838 C.ar    
  20 C20           -4.7633    -0.5920     0.6322 C.ar    
  21 C21           -5.0092    -1.6019    -0.2888 C.ar    
  22 C22           -3.9602    -2.3846    -0.7531 C.ar    
  23 S23            2.6551     2.9143    -1.7119 S.o2    
  24 O24            2.7844     2.2666    -2.9701 O.2     
  25 O25            1.9494     4.1349    -1.5350 O.2     
  26 N26           -6.3110    -1.8304    -0.7479 N.am    
  27 O27           -6.8120     0.3269    -0.6157 O.2     
  28 C28           -7.1531    -0.7939    -0.9297 C.2     
  29 C29           -8.5185    -1.0274    -1.5230 C.3     
  30 S30           -0.7968    -0.8682     1.2040 S.o2    
  31 O31           -0.0914    -2.0890     1.0267 O.2     
  32 O32           -0.9256    -0.2207     2.4624 O.2     
  33 H33           -0.7700     2.1498    -0.3487 H       
  34 H34           -0.6976     1.8324     1.4044 H       
  35 H35            1.1531     3.3537     0.5004 H       
  36 H36            1.7233     1.9221     1.3973 H       
  37 H37            2.5559     0.2136    -1.9122 H       
  38 H38            2.6282    -0.1037    -0.1592 H       
  39 H39            0.7051    -1.3077    -1.0083 H       
  40 H40            0.1350     0.1240    -1.9052 H       
  41 H41            5.1427     1.6242    -2.2988 H       
  42 H42            3.7192     4.8177     0.1422 H       
  43 H43            6.0064     5.2262     0.9534 H       
  44 H44           10.0981     3.2519     0.2048 H       
  45 H45            8.9008     2.0420     0.7353 H       
  46 H46            9.1590     3.1669    -2.0987 H       
  47 H47            9.6887     1.5476    -1.5734 H       
  48 H48           -1.8603    -2.7657    -0.6576 H       
  49 H49           -3.2855     0.4157     1.8003 H       
  50 H50           -5.5770     0.0184     0.9952 H       
  51 H51           -4.1481    -3.1705    -1.4696 H       
  52 H52           -6.6075    -2.7347    -0.9355 H       
  53 H53           -9.0785    -1.7133    -0.8873 H       
  54 H54           -9.0516    -0.0792    -1.5925 H       
  55 H55           -8.4132    -1.4588    -2.5185 H       
@<TRIPOS>BOND
   1    1    2 1
   2    1    3 1
   3    1   33 1
   4    1   34 1
   5    2   30 am
   6    2    6 1
   7    3    4 1
   8    3   35 1
   9    3   36 1
  10    4    5 1
  11    4   23 am
  12    5    6 1
  13    5   37 1
  14    5   38 1
  15    6   39 1
  16    6   40 1
  17    7    8 ar
  18    7    9 ar
  19    7   23 1
  20    8   12 ar
  21    8   41 1
  22    9   10 ar
  23    9   42 1
  24   10   11 ar
  25   10   43 1
  26   11   12 ar
  27   11   13 1
  28   12   16 1
  29   13   14 1
  30   14   15 1
  31   14   44 1
  32   14   45 1
  33   15   16 1
  34   15   46 1
  35   15   47 1
  36   17   18 ar
  37   17   19 ar
  38   17   30 1
  39   18   22 ar
  40   18   48 1
  41   19   20 ar
  42   19   49 1
  43   20   21 ar
  44   20   50 1
  45   21   22 ar
  46   21   26 1
  47   22   51 1
  48   23   24 2
  49   23   25 2
  50   26   28 am
  51   26   52 1
  52   27   28 2
  53   28   29 1
  54   29   53 1
  55   29   54 1
  56   29   55 1
  57   30   31 2
  58   30   32 2

#	End of record

