#	Name: ASD00069070
#	Creating user name:	WinNT
#	Creation time:	15. 06. 2019 18:29

#	Modifying user name:	WinNT
#	Modification time:	15. 06. 2019 18:29

#	Program:	/corina/corina34_cracker 3.40 0067  02.08.2006

@<TRIPOS>MOLECULE
ASD00069070
  31   31    0    0    0
SMALL
NO_CHARGES


@<TRIPOS>ATOM
   1 C1            -0.0187     1.5258     0.0104 C.3     
   2 C2             0.0021    -0.0041     0.0020 C.3     
   3 C3             1.4167     2.0553    -0.0004 C.3     
   4 C4            -0.2825     1.7046    -2.4722 C.ar    
   5 C5            -0.9508     2.1630    -3.5921 C.ar    
   6 C6            -2.0842     2.9416    -3.4503 C.ar    
   7 C7            -2.5495     3.2616    -2.1885 C.ar    
   8 C8            -1.8809     2.8037    -1.0686 C.ar    
   9 C9            -0.7475     2.0250    -1.2105 C.ar    
  10 C10           -2.8121     3.4421    -4.6712 C.3     
  11 C11           -4.0218     4.2732    -4.2387 C.3     
  12 C12           -1.8694     4.3103    -5.5069 C.3     
  13 C13           -3.2664     2.2962    -5.4757 C.1     
  14 N14           -3.6170     1.4118    -6.0966 N.1     
  15 H15           -0.5289     1.8773     0.9072 H       
  16 H16            0.5293    -0.3651     0.8851 H       
  17 H17           -1.0205    -0.3814     0.0098 H       
  18 H18            0.5123    -0.3556    -0.8948 H       
  19 H19            1.9269     1.7038    -0.8972 H       
  20 H20            1.4019     3.1452     0.0056 H       
  21 H21            1.9439     1.6943     0.8826 H       
  22 H22            0.6004     1.0926    -2.5830 H       
  23 H23           -0.5873     1.9130    -4.5779 H       
  24 H24           -3.4345     3.8705    -2.0777 H       
  25 H25           -2.2442     3.0539    -0.0828 H       
  26 H26           -3.6854     5.1217    -3.6430 H       
  27 H27           -4.5483     4.6352    -5.1218 H       
  28 H28           -4.6934     3.6547    -3.6433 H       
  29 H29           -1.0076     3.7182    -5.8150 H       
  30 H30           -2.3960     4.6723    -6.3900 H       
  31 H31           -1.5330     5.1588    -4.9112 H       
@<TRIPOS>BOND
   1    1    2 1
   2    1    3 1
   3    1    9 1
   4    1   15 1
   5    2   16 1
   6    2   17 1
   7    2   18 1
   8    3   19 1
   9    3   20 1
  10    3   21 1
  11    4    5 ar
  12    4    9 ar
  13    4   22 1
  14    5    6 ar
  15    5   23 1
  16    6    7 ar
  17    6   10 1
  18    7    8 ar
  19    7   24 1
  20    8    9 ar
  21    8   25 1
  22   10   11 1
  23   10   12 1
  24   10   13 1
  25   11   26 1
  26   11   27 1
  27   11   28 1
  28   12   29 1
  29   12   30 1
  30   12   31 1
  31   13   14 3

#	End of record

