#	Name: ASD05313053
#	Creating user name:	WinNT
#	Creation time:	15. 06. 2019 20:58

#	Modifying user name:	WinNT
#	Modification time:	15. 06. 2019 20:58

#	Program:	/corina/corina34_cracker 3.40 0067  02.08.2006

@<TRIPOS>MOLECULE
ASD05313053
  40   43    0    0    0
SMALL
NO_CHARGES


@<TRIPOS>ATOM
   1 C1            -0.0720     0.8165     1.0257 C.2     
   2 C2             0.1141    -0.6197     0.5976 C.3     
   3 N3             0.9289     1.7292     1.0520 N.pl3   
   4 N4             1.4571    -0.7188    -0.0046 N.am    
   5 C5             2.5714    -0.0368     0.6712 C.3     
   6 C6             2.3156     1.4750     0.6653 C.3     
   7 N7            -0.9053     2.6390     1.7111 N.2     
   8 N8            -1.1579     1.4069     1.4291 N.2     
   9 C9             0.3705     2.8889     1.4974 C.2     
  10 C10            1.0634     4.1794     1.7040 C.ar    
  11 N11            0.3722     5.2226     2.1461 N.ar    
  12 C12            0.9613     6.3893     2.3412 C.ar    
  13 C13            2.3176     6.5153     2.0781 C.ar    
  14 C14            3.0102     5.4052     1.6171 C.ar    
  15 N15            2.3628     4.2655     1.4482 N.ar    
  16 C16            1.6574    -1.4149    -1.1412 C.2     
  17 O17            2.7490    -1.4041    -1.6762 O.2     
  18 C18            0.5502    -2.1911    -1.7371 C.ar    
  19 C19            0.3187    -2.1400    -3.1142 C.ar    
  20 C20           -0.7182    -2.8683    -3.6637 C.ar    
  21 C21           -1.5259    -3.6460    -2.8539 C.ar    
  22 C22           -1.3017    -3.7003    -1.4895 C.ar    
  23 C23           -0.2657    -2.9834    -0.9278 C.ar    
  24 C24           -0.9703    -2.8151    -5.1485 C.3     
  25 F25           -2.0639    -3.6280    -5.4653 F       
  26 F26           -1.2439    -1.4966    -5.5281 F       
  27 F27            0.1628    -3.2711    -5.8306 F       
  28 Cl28           1.3311    -1.1632    -4.1314 Cl      
  29 H29            0.0453    -1.2779     1.4637 H       
  30 H30           -0.6440    -0.8899    -0.1375 H       
  31 H31            2.6441    -0.3897     1.6999 H       
  32 H32            3.5019    -0.2508     0.1453 H       
  33 H33            2.4931     1.8704    -0.3348 H       
  34 H34            2.9863     1.9607     1.3742 H       
  35 H35            0.3936     7.2348     2.7008 H       
  36 H36            2.8234     7.4576     2.2287 H       
  37 H37            4.0667     5.4704     1.4030 H       
  38 H38           -2.3355    -4.2134    -3.2886 H       
  39 H39           -1.9369    -4.3093    -0.8633 H       
  40 H40           -0.0892    -3.0312     0.1366 H       
@<TRIPOS>BOND
   1    1    2 1
   2    1    3 1
   3    1    8 2
   4    2    4 1
   5    2   29 1
   6    2   30 1
   7    3    6 1
   8    3    9 1
   9    4    5 1
  10    4   16 am
  11    5    6 1
  12    5   31 1
  13    5   32 1
  14    6   33 1
  15    6   34 1
  16    7    8 1
  17    7    9 2
  18    9   10 1
  19   10   11 ar
  20   10   15 ar
  21   11   12 ar
  22   12   13 ar
  23   12   35 1
  24   13   14 ar
  25   13   36 1
  26   14   15 ar
  27   14   37 1
  28   16   17 2
  29   16   18 1
  30   18   19 ar
  31   18   23 ar
  32   19   20 ar
  33   19   28 1
  34   20   21 ar
  35   20   24 1
  36   21   22 ar
  37   21   38 1
  38   22   23 ar
  39   22   39 1
  40   23   40 1
  41   24   25 1
  42   24   26 1
  43   24   27 1

#	End of record

