#	Name: ASD07301415
#	Creating user name:	WinNT
#	Creation time:	15. 06. 2019 21:11

#	Modifying user name:	WinNT
#	Modification time:	15. 06. 2019 21:11

#	Program:	/corina/corina34_cracker 3.40 0067  02.08.2006

@<TRIPOS>MOLECULE
ASD07301415
  46   49    0    0    0
SMALL
NO_CHARGES


@<TRIPOS>ATOM
   1 C1            -0.0169     1.3962     0.0097 C.ar    
   2 C2             0.0021    -0.0041     0.0020 C.ar    
   3 C3             1.2147    -0.6693    -0.0134 C.ar    
   4 C4             2.3890     0.0972    -0.0208 C.ar    
   5 C5             2.2886     1.4904    -0.0124 C.ar    
   6 N6             1.1146     2.0849     0.0026 N.ar    
   7 C7            -2.1128     0.6644     0.0347 C.2     
   8 N8            -1.3519     1.7743     0.0301 N.am    
   9 N9            -1.3246    -0.4272     0.0132 N.am    
  10 C10            3.6719    -0.5389    -0.0364 C.1     
  11 N11            4.6896    -1.0435    -0.0487 N.1     
  12 O12           -3.3293     0.6495     0.0518 O.2     
  13 C13           -1.7830    -1.8186     0.0104 C.3     
  14 C14           -1.9280    -2.3108     1.4518 C.3     
  15 C15           -1.8288     3.0936     0.0444 C.ar    
  16 C16           -3.1952     3.3379     0.0645 C.ar    
  17 C17           -3.6641     4.6366     0.0790 C.ar    
  18 C18           -2.7699     5.6972     0.0736 C.ar    
  19 C19           -1.4043     5.4537     0.0531 C.ar    
  20 C20           -0.9343     4.1553     0.0443 C.ar    
  21 O21           -3.2320     6.9758     0.0879 O.3     
  22 C22           -2.2552     8.0188     0.0812 C.3     
  23 C23           -2.9487     9.3566     0.0991 C.ar    
  24 C24           -3.2506     9.9627     1.3043 C.ar    
  25 C25           -3.8868    11.1898     1.3206 C.ar    
  26 C26           -4.2207    11.8111     0.1318 C.ar    
  27 C27           -3.9180    11.2055    -1.0734 C.ar    
  28 C28           -3.2779     9.9804    -1.0898 C.ar    
  29 H29            1.2560    -1.7485    -0.0193 H       
  30 H30            3.1878     2.0886    -0.0176 H       
  31 H31           -2.7472    -1.8825    -0.4941 H       
  32 H32           -1.0567    -2.4395    -0.5142 H       
  33 H33           -2.2692    -3.3460     1.4497 H       
  34 H34           -0.9639    -2.2469     1.9562 H       
  35 H35           -2.6543    -1.6899     1.9764 H       
  36 H36           -3.8915     2.5122     0.0683 H       
  37 H37           -4.7271     4.8267     0.0942 H       
  38 H38           -0.7086     6.2798     0.0482 H       
  39 H39            0.1289     3.9658     0.0333 H       
  40 H40           -1.6198     7.9272     0.9621 H       
  41 H41           -1.6439     7.9384    -0.8176 H       
  42 H42           -2.9897     9.4773     2.2331 H       
  43 H43           -4.1233    11.6630     2.2622 H       
  44 H44           -4.7184    12.7696     0.1446 H       
  45 H45           -4.1792    11.6908    -2.0022 H       
  46 H46           -3.0382     9.5090    -2.0314 H       
@<TRIPOS>BOND
   1    1    2 ar
   2    1    6 ar
   3    1    8 1
   4    2    3 ar
   5    2    9 1
   6    3    4 ar
   7    3   29 1
   8    4    5 ar
   9    4   10 1
  10    5    6 ar
  11    5   30 1
  12    7    8 am
  13    7    9 am
  14    7   12 2
  15    8   15 1
  16    9   13 1
  17   10   11 3
  18   13   14 1
  19   13   31 1
  20   13   32 1
  21   14   33 1
  22   14   34 1
  23   14   35 1
  24   15   16 ar
  25   15   20 ar
  26   16   17 ar
  27   16   36 1
  28   17   18 ar
  29   17   37 1
  30   18   19 ar
  31   18   21 1
  32   19   20 ar
  33   19   38 1
  34   20   39 1
  35   21   22 1
  36   22   23 1
  37   22   40 1
  38   22   41 1
  39   23   24 ar
  40   23   28 ar
  41   24   25 ar
  42   24   42 1
  43   25   26 ar
  44   25   43 1
  45   26   27 ar
  46   26   44 1
  47   27   28 ar
  48   27   45 1
  49   28   46 1

#	End of record

