#	Name: ASD03740027
#	Creating user name:	WinNT
#	Creation time:	15. 06. 2019 20:46

#	Modifying user name:	WinNT
#	Modification time:	15. 06. 2019 20:46

#	Program:	/corina/corina34_cracker 3.40 0067  02.08.2006

@<TRIPOS>MOLECULE
ASD03740027
  44   46    0    0    0
SMALL
NO_CHARGES


@<TRIPOS>ATOM
   1 C1            -0.0167     1.3784     0.0096 C.ar    
   2 C2             0.0021    -0.0041     0.0020 C.ar    
   3 C3            -1.1841    -0.7122     0.0095 C.ar    
   4 C4            -2.3948    -0.0349     0.0247 C.ar    
   5 C5            -2.4109     1.3523     0.0323 C.ar    
   6 C6            -1.2219     2.0557     0.0305 C.ar    
   7 S7             1.4980     2.2786    -0.0000 S.o2    
   8 N8             1.9043     2.5376    -1.5844 N.am    
   9 O9             1.2097     3.5550     0.5541 O.2     
  10 O10            2.4865     1.4064     0.5303 O.2     
  11 C11            1.5393     3.6065    -2.3385 C.2     
  12 C12            2.0765     3.4375    -3.5777 C.2     
  13 C13            2.7884     2.2300    -3.5753 C.2     
  14 N14            2.6900     1.6958    -2.3818 N.2     
  15 N15            0.7575     4.6795    -1.9204 N.pl3   
  16 O16            3.4695     1.7052    -4.6287 O.3     
  17 C17            4.0937     0.5282    -4.4283 C.2     
  18 C18            4.8523    -0.1010    -5.5265 C.ar    
  19 O19            4.0321    -0.0152    -3.3433 O.2     
  20 O20           -3.5630    -0.7292     0.0317 O.3     
  21 C21            4.9255     0.5204    -6.7753 C.ar    
  22 C22            5.6364    -0.0728    -7.7970 C.ar    
  23 C23            6.2772    -1.2821    -7.5893 C.ar    
  24 C24            6.2104    -1.9056    -6.3572 C.ar    
  25 C25            5.5067    -1.3205    -5.3207 C.ar    
  26 F26            5.4420    -1.9297    -4.1165 F       
  27 C27           -4.7711     0.0339     0.0474 C.3     
  28 C28            6.9107    -3.2225    -6.1417 C.3     
  29 F29            7.5539    -3.6074    -7.3230 F       
  30 F30            7.8558    -3.0863    -5.1192 F       
  31 F31            5.9726    -4.1963    -5.7829 F       
  32 H32            0.9448    -0.5308    -0.0102 H       
  33 H33           -1.1689    -1.7920     0.0032 H       
  34 H34           -3.3521     1.8818     0.0442 H       
  35 H35           -1.2339     3.1356     0.0364 H       
  36 H36            1.9722     4.1129    -4.4139 H       
  37 H37            0.4193     4.7081    -1.0117 H       
  38 H38            0.5509     5.3986    -2.5377 H       
  39 H39            4.4260     1.4636    -6.9403 H       
  40 H40            5.6932     0.4075    -8.7626 H       
  41 H41            6.8319    -1.7412    -8.3943 H       
  42 H42           -4.7955     0.6572     0.9412 H       
  43 H43           -4.8122     0.6674    -0.8387 H       
  44 H44           -5.6271    -0.6410     0.0515 H       
@<TRIPOS>BOND
   1    1    2 ar
   2    1    7 1
   3    1    6 ar
   4    2    3 ar
   5    2   32 1
   6    3    4 ar
   7    3   33 1
   8    4    5 ar
   9    4   20 1
  10    5    6 ar
  11    5   34 1
  12    6   35 1
  13    7    8 am
  14    7    9 2
  15    7   10 2
  16    8   11 1
  17    8   14 1
  18   11   12 2
  19   11   15 1
  20   12   13 1
  21   12   36 1
  22   13   14 2
  23   13   16 1
  24   15   37 1
  25   15   38 1
  26   16   17 1
  27   17   18 1
  28   17   19 2
  29   18   21 ar
  30   18   25 ar
  31   20   27 1
  32   21   22 ar
  33   21   39 1
  34   22   23 ar
  35   22   40 1
  36   23   24 ar
  37   23   41 1
  38   24   25 ar
  39   24   28 1
  40   25   26 1
  41   27   42 1
  42   27   43 1
  43   27   44 1
  44   28   29 1
  45   28   30 1
  46   28   31 1

#	End of record

