#	Name: ASD01850136
#	Creating user name:	WinNT
#	Creation time:	15. 06. 2019 19:38

#	Modifying user name:	WinNT
#	Modification time:	15. 06. 2019 19:38

#	Program:	/corina/corina34_cracker 3.40 0067  02.08.2006

@<TRIPOS>MOLECULE
ASD01850136
  59   62    0    0    0
SMALL
NO_CHARGES


@<TRIPOS>ATOM
   1 C1            -0.6130    -5.6230    -1.9336 C.ar    
   2 C2            -1.2438    -6.2011    -3.0280 C.ar    
   3 C3            -0.5330    -6.9366    -3.9319 C.ar    
   4 C4             0.8439    -7.1091    -3.7535 C.ar    
   5 C5             1.4816    -6.5221    -2.6433 C.ar    
   6 C6             0.7304    -5.7773    -1.7379 C.ar    
   7 C7             1.8834    -7.8106    -4.4999 C.2     
   8 N8             3.0104    -7.6378    -3.8704 N.2     
   9 N9             2.8083    -6.8550    -2.7290 N.pl3   
  10 S10           -2.9780    -5.9834    -3.2511 S.o2    
  11 N11           -3.1873    -4.6158    -4.1611 N.am    
  12 O12           -3.4190    -7.0704    -4.0531 O.2     
  13 O13           -3.5149    -5.6971    -1.9670 O.2     
  14 C14           -3.2334    -4.6922    -5.6276 C.3     
  15 C15           -2.2024    -3.7172    -6.2048 C.3     
  16 C16           -2.4575    -2.3179    -5.6400 C.3     
  17 C17           -2.2989    -2.3435    -4.1181 C.3     
  18 C18           -3.3366    -3.3037    -3.5170 C.3     
  19 C19           -1.4663    -1.3493    -6.2318 C.2     
  20 O20           -0.3217    -1.6980    -6.4297 O.2     
  21 N21           -1.8518    -0.0954    -6.5412 N.am    
  22 C22           -3.2655     0.2789    -6.4539 C.3     
  23 C23           -0.8571     0.8932    -6.9649 C.3     
  24 C24            0.5047     0.2130    -7.1184 C.3     
  25 C25           -0.7601     1.9837    -5.9293 C.ar    
  26 C26           -3.9552    -0.0194    -7.7867 C.3     
  27 C27           -0.7036     3.3076    -6.3228 C.ar    
  28 C28           -0.7332     1.6604    -4.5855 C.ar    
  29 C29           -0.6442     2.6606    -3.6356 C.ar    
  30 C30           -0.5816     3.9842    -4.0294 C.ar    
  31 C31           -0.6145     4.3079    -5.3729 C.ar    
  32 H32           -1.1908    -5.0406    -1.2312 H       
  33 H33           -1.0308    -7.3831    -4.7800 H       
  34 H34            1.2085    -5.3226    -0.8829 H       
  35 H35            1.7430    -8.3731    -5.4111 H       
  36 H36            3.4967    -6.5905    -2.0989 H       
  37 H37           -2.9965    -5.7067    -5.9483 H       
  38 H38           -4.2295    -4.4197    -5.9766 H       
  39 H39           -1.1994    -4.0433    -5.9296 H       
  40 H40           -2.2926    -3.6932    -7.2908 H       
  41 H41           -3.4694    -2.0025    -5.8944 H       
  42 H42           -1.2950    -2.6826    -3.8625 H       
  43 H43           -2.4577    -1.3418    -3.7188 H       
  44 H44           -4.3396    -2.9155    -3.6946 H       
  45 H45           -3.1653    -3.4025    -2.4451 H       
  46 H46           -3.7448    -0.2945    -5.6604 H       
  47 H47           -3.3466     1.3431    -6.2330 H       
  48 H48           -1.1575     1.3247    -7.9197 H       
  49 H49            0.8863    -0.0622    -6.1351 H       
  50 H50            0.3966    -0.6828    -7.7299 H       
  51 H51            1.2015     0.8994    -7.5995 H       
  52 H52           -3.4680     0.5444    -8.5821 H       
  53 H53           -3.8850    -1.0857    -8.0015 H       
  54 H54           -5.0042     0.2707    -7.7258 H       
  55 H55           -0.7286     3.5605    -7.3725 H       
  56 H56           -0.7822     0.6263    -4.2779 H       
  57 H57           -0.6240     2.4081    -2.5857 H       
  58 H58           -0.5124     4.7657    -3.2872 H       
  59 H59           -0.5656     5.3420    -5.6806 H       
@<TRIPOS>BOND
   1    1    2 ar
   2    1    6 ar
   3    1   32 1
   4    2    3 ar
   5    2   10 1
   6    3    4 ar
   7    3   33 1
   8    4    5 ar
   9    4    7 1
  10    5    6 ar
  11    5    9 1
  12    6   34 1
  13    7    8 2
  14    7   35 1
  15    8    9 1
  16    9   36 1
  17   10   11 am
  18   10   12 2
  19   10   13 2
  20   11   14 1
  21   11   18 1
  22   14   15 1
  23   14   37 1
  24   14   38 1
  25   15   16 1
  26   15   39 1
  27   15   40 1
  28   16   17 1
  29   16   19 1
  30   16   41 1
  31   17   18 1
  32   17   42 1
  33   17   43 1
  34   18   44 1
  35   18   45 1
  36   19   20 2
  37   19   21 am
  38   21   22 1
  39   21   23 1
  40   22   26 1
  41   22   46 1
  42   22   47 1
  43   23   24 1
  44   23   25 1
  45   23   48 1
  46   24   49 1
  47   24   50 1
  48   24   51 1
  49   25   27 ar
  50   25   28 ar
  51   26   52 1
  52   26   53 1
  53   26   54 1
  54   27   31 ar
  55   27   55 1
  56   28   29 ar
  57   28   56 1
  58   29   30 ar
  59   29   57 1
  60   30   31 ar
  61   30   58 1
  62   31   59 1

#	End of record

