#	Name: ASD05143278
#	Creating user name:	WinNT
#	Creation time:	15. 06. 2019 20:57

#	Modifying user name:	WinNT
#	Modification time:	15. 06. 2019 20:57

#	Program:	/corina/corina34_cracker 3.40 0067  02.08.2006

@<TRIPOS>MOLECULE
ASD05143278
  49   51    0    0    0
SMALL
NO_CHARGES


@<TRIPOS>ATOM
   1 C1             0.3781     1.2268     0.2678 C.2     
   2 N2             0.3727    -0.0384    -0.1020 N.2     
   3 S3            -1.2646    -0.4827    -0.1985 S.3     
   4 C4            -1.8602     1.0652     0.2662 C.2     
   5 N5            -0.7912     1.8040     0.4657 N.2     
   6 N6            -3.1815     1.4478     0.4049 N.pl3   
   7 C7            -3.4936     2.7222     0.8938 C.ar    
   8 C8            -4.8155     3.0547     1.1843 C.ar    
   9 C9            -5.1182     4.3164     1.6680 C.ar    
  10 C10           -4.1101     5.2434     1.8619 C.ar    
  11 C11           -2.7988     4.9146     1.5735 C.ar    
  12 C12           -2.4874     3.6553     1.0957 C.ar    
  13 C13            1.4627    -0.8317    -0.3568 C.ar    
  14 C14            2.3911    -0.4563    -1.3274 C.ar    
  15 C15            1.6517    -2.0197     0.3605 C.ar    
  16 C16            2.7544    -2.8135     0.0963 C.ar    
  17 C17            3.6658    -2.4341    -0.8727 C.ar    
  18 C18            3.4858    -1.2585    -1.5794 C.ar    
  19 C19            1.6462     1.9685     0.4593 C.ar    
  20 C20            1.7067     3.3344     0.1845 C.ar    
  21 C21            2.7826     1.3047     0.9206 C.ar    
  22 C22            3.9608     2.0009     1.0970 C.ar    
  23 C23            4.0162     3.3546     0.8172 C.ar    
  24 C24            2.8906     4.0198     0.3648 C.ar    
  25 O25            0.7560    -2.3914     1.3126 O.3     
  26 C26            1.0141    -3.6155     2.0034 C.3     
  27 O27           -5.8057     2.1424     0.9929 O.3     
  28 C28           -7.1367     2.5530     1.3121 C.3     
  29 H29           -3.8923     0.8334     0.1636 H       
  30 H30           -6.1418     4.5769     1.8937 H       
  31 H31           -4.3482     6.2269     2.2392 H       
  32 H32           -2.0152     5.6420     1.7258 H       
  33 H33           -1.4620     3.4010     0.8712 H       
  34 H34            2.2536     0.4606    -1.8813 H       
  35 H35            2.9036    -3.7301     0.6476 H       
  36 H36            4.5247    -3.0567    -1.0754 H       
  37 H37            4.2019    -0.9698    -2.3345 H       
  38 H38            0.8287     3.8546    -0.1691 H       
  39 H39            2.7406     0.2480     1.1397 H       
  40 H40            4.8415     1.4881     1.4545 H       
  41 H41            4.9406     3.8953     0.9568 H       
  42 H42            2.9399     5.0766     0.1480 H       
  43 H43            1.0397    -4.4378     1.2883 H       
  44 H44            1.9743    -3.5486     2.5148 H       
  45 H45            0.2250    -3.7937     2.7339 H       
  46 H46           -7.1898     2.8260     2.3661 H       
  47 H47           -7.4083     3.4129     0.6999 H       
  48 H48           -7.8272     1.7332     1.1139 H       
  49 Br49           9.9406    11.2269     7.7339 Br      
@<TRIPOS>BOND
   1    1    2 2
   2    1   19 1
   3    1    5 1
   4    2    3 1
   5    2   13 1
   6    3    4 1
   7    4    5 2
   8    4    6 1
   9    6    7 1
  10    6   29 1
  11    7    8 ar
  12    7   12 ar
  13    8    9 ar
  14    8   27 1
  15    9   10 ar
  16    9   30 1
  17   10   11 ar
  18   10   31 1
  19   11   12 ar
  20   11   32 1
  21   12   33 1
  22   13   14 ar
  23   13   15 ar
  24   14   18 ar
  25   14   34 1
  26   15   16 ar
  27   15   25 1
  28   16   17 ar
  29   16   35 1
  30   17   18 ar
  31   17   36 1
  32   18   37 1
  33   19   20 ar
  34   19   21 ar
  35   20   24 ar
  36   20   38 1
  37   21   22 ar
  38   21   39 1
  39   22   23 ar
  40   22   40 1
  41   23   24 ar
  42   23   41 1
  43   24   42 1
  44   25   26 1
  45   26   43 1
  46   26   44 1
  47   26   45 1
  48   27   28 1
  49   28   46 1
  50   28   47 1
  51   28   48 1

#	End of record

