#	Name: ASD02198520
#	Creating user name:	WinNT
#	Creation time:	15. 06. 2019 20:19

#	Modifying user name:	WinNT
#	Modification time:	15. 06. 2019 20:19

#	Program:	/corina/corina34_cracker 3.40 0067  02.08.2006

@<TRIPOS>MOLECULE
ASD02198520
  55   59    0    0    0
SMALL
NO_CHARGES


@<TRIPOS>ATOM
   1 C1             0.0072     1.5098     0.1333 C.2     
   2 C2             0.0745     0.1698    -0.0950 C.2     
   3 N3            -1.0518    -0.5605    -0.2643 N.pl3   
   4 N4            -2.2298    -0.0570    -0.2234 N.2     
   5 C5            -2.4374     1.2261    -0.0104 C.2     
   6 C6            -1.2790     2.1068     0.1921 C.2     
   7 C7            -0.9243    -1.9344    -0.4961 C.ar    
   8 C8            -1.3847    -3.8655    -1.8475 C.ar    
   9 C9            -0.6722    -4.6556    -0.9543 C.ar    
  10 C10           -0.0906    -4.0823     0.1704 C.ar    
  11 C11           -0.2165    -2.7274     0.3987 C.ar    
  12 C12           -3.8106     1.7690     0.0297 C.2     
  13 N13           -4.3724     2.4816     1.0514 N.pl3   
  14 N14           -5.6842     2.8002     0.6785 N.2     
  15 C15           -5.9147     2.3075    -0.5123 C.2     
  16 C16           -4.7640     1.6574    -0.9584 C.2     
  17 C17           -3.7482     2.8308     2.2557 C.ar    
  18 C18           -2.9545     1.9062     2.9217 C.ar    
  19 O19           -1.4169     3.3048     0.3938 O.2     
  20 C20           -3.9173     4.1042     2.7834 C.ar    
  21 C21           -3.3005     4.4454     3.9711 C.ar    
  22 C22           -2.5153     3.5205     4.6348 C.ar    
  23 C23           -2.3405     2.2535     4.1090 C.ar    
  24 C24           -1.5111    -2.5082    -1.6200 C.ar    
  25 F25           -2.2043    -1.7390    -2.4878 F       
  26 N26           -0.5443    -6.0275    -1.1840 N.3     
  27 C27            0.2442    -6.6683    -0.1215 C.3     
  28 C28            0.0504    -6.2876    -2.5031 C.3     
  29 C29            0.1170    -7.7990    -2.7377 C.3     
  30 O30            0.8605    -8.4085    -1.6789 O.3     
  31 C31            0.3089    -8.1759    -0.3801 C.3     
  32 O32            1.1345     2.2510     0.3049 O.3     
  33 C33            2.3829     1.5591     0.2343 C.3     
  34 H34            1.0379    -0.3161    -0.1419 H       
  35 H35           -1.8363    -4.3111    -2.7215 H       
  36 H36            0.4632    -4.6972     0.8643 H       
  37 H37            0.2355    -2.2830     1.2732 H       
  38 H38           -6.8413     2.3937    -1.0604 H       
  39 H39           -4.6441     1.1521    -1.9053 H       
  40 H40           -2.8178     0.9164     2.5118 H       
  41 H41           -4.5301     4.8270     2.2653 H       
  42 H42           -3.4313     5.4356     4.3818 H       
  43 H43           -2.0341     3.7898     5.5634 H       
  44 H44           -1.7269     1.5333     4.6299 H       
  45 H45            1.2532    -6.2560    -0.1181 H       
  46 H46           -0.2281    -6.4844     0.8435 H       
  47 H47           -0.5633    -5.8259    -3.2765 H       
  48 H48            1.0563    -5.8692    -2.5377 H       
  49 H49           -0.8927    -8.2093    -2.7565 H       
  50 H50            0.6093    -7.9982    -3.6896 H       
  51 H51            0.9399    -8.6476     0.3732 H       
  52 H52           -0.6952    -8.5971    -0.3303 H       
  53 H53            3.1989     2.2653     0.3878 H       
  54 H54            2.4168     0.7911     1.0071 H       
  55 H55            2.4851     1.0931    -0.7457 H       
@<TRIPOS>BOND
   1    1    2 2
   2    1   32 1
   3    1    6 1
   4    2    3 1
   5    2   34 1
   6    3    4 1
   7    3    7 1
   8    4    5 2
   9    5    6 1
  10    5   12 1
  11    6   19 2
  12    7   24 ar
  13    7   11 ar
  14    8    9 ar
  15    8   24 ar
  16    8   35 1
  17    9   10 ar
  18    9   26 1
  19   10   11 ar
  20   10   36 1
  21   11   37 1
  22   12   13 1
  23   12   16 2
  24   13   14 1
  25   13   17 1
  26   14   15 2
  27   15   16 1
  28   15   38 1
  29   16   39 1
  30   17   20 ar
  31   17   18 ar
  32   18   23 ar
  33   18   40 1
  34   20   21 ar
  35   20   41 1
  36   21   22 ar
  37   21   42 1
  38   22   23 ar
  39   22   43 1
  40   23   44 1
  41   24   25 1
  42   26   27 1
  43   26   28 1
  44   27   31 1
  45   27   45 1
  46   27   46 1
  47   28   29 1
  48   28   47 1
  49   28   48 1
  50   29   30 1
  51   29   49 1
  52   29   50 1
  53   30   31 1
  54   31   51 1
  55   31   52 1
  56   32   33 1
  57   33   53 1
  58   33   54 1
  59   33   55 1

#	End of record

