#	Name: ASD01817042
#	Creating user name:	WinNT
#	Creation time:	15. 06. 2019 19:36

#	Modifying user name:	WinNT
#	Modification time:	15. 06. 2019 19:36

#	Program:	/corina/corina34_cracker 3.40 0067  02.08.2006

@<TRIPOS>MOLECULE
ASD01817042
  45   46    0    0    0
SMALL
NO_CHARGES


@<TRIPOS>ATOM
   1 C1            -0.0187     1.5262     0.0104 C.3     
   2 C2             0.0021    -0.0041     0.0020 C.3     
   3 C3            -1.4365    -0.5301    -0.0220 C.3     
   4 N4            -2.1737     0.0572     1.1051 N.am    
   5 C5            -2.1821     1.5183     1.2591 C.3     
   6 C6            -0.7352     2.0214     1.2688 C.3     
   7 C7            -2.8301    -0.7295     1.9807 C.2     
   8 O8            -2.8159    -1.9366     1.8422 O.2     
   9 N9             1.3596     2.0344     0.0000 N.3     
  10 C10            1.4180     3.3858    -0.5729 C.3     
  11 C11            2.8660     3.8801    -0.5668 C.3     
  12 N12            2.9243     5.2278    -1.1382 N.am    
  13 C13            4.1063     5.8681    -1.2352 C.2     
  14 C14            4.1646     7.2166    -1.8069 C.2     
  15 O15            5.1252     5.3267    -0.8481 O.2     
  16 C16            5.2978     7.9652    -1.9578 C.2     
  17 C17            5.0646     9.1965    -2.5231 C.2     
  18 C18            3.7858     9.4494    -2.8253 C.2     
  19 S19            2.7888     8.1270    -2.4151 S.3     
  20 O20           -3.5016    -0.1778     3.0090 O.3     
  21 C21           -4.8869    -0.2815     5.0091 C.3     
  22 C22           -4.1854    -1.0856     3.9127 C.3     
  23 H23           -0.5455     1.8871    -0.8729 H       
  24 H24            0.5329    -0.3558    -0.8826 H       
  25 H25            0.5069    -0.3660     0.8977 H       
  26 H26           -1.9142    -0.2450    -0.9594 H       
  27 H27           -1.4300    -1.6161     0.0717 H       
  28 H28           -2.7206     1.9704     0.4262 H       
  29 H29           -2.6676     1.7839     2.1982 H       
  30 H30           -0.2234     1.6404     2.1526 H       
  31 H31           -0.7291     3.1113     1.2858 H       
  32 H32            1.7584     2.0169     0.9267 H       
  33 H33            1.0464     3.3625    -1.5973 H       
  34 H34            0.8016     4.0596     0.0220 H       
  35 H35            3.2377     3.9034     0.4576 H       
  36 H36            3.4825     3.2062    -1.1618 H       
  37 H37            2.1122     5.6594    -1.4467 H       
  38 H38            6.2788     7.6238    -1.6622 H       
  39 H39            5.8557     9.9078    -2.7094 H       
  40 H40            3.4326    10.3665    -3.2732 H       
  41 H41           -4.1485     0.2964     5.5648 H       
  42 H42           -5.6119     0.3949     4.5563 H       
  43 H43           -5.4003    -0.9631     5.6875 H       
  44 H44           -4.9239    -1.6635     3.3570 H       
  45 H45           -3.4605    -1.7620     4.3655 H       
@<TRIPOS>BOND
   1    1    2 1
   2    1    9 1
   3    1    6 1
   4    1   23 1
   5    2    3 1
   6    2   24 1
   7    2   25 1
   8    3    4 1
   9    3   26 1
  10    3   27 1
  11    4    5 1
  12    4    7 am
  13    5    6 1
  14    5   28 1
  15    5   29 1
  16    6   30 1
  17    6   31 1
  18    7    8 2
  19    7   20 1
  20    9   10 1
  21    9   32 1
  22   10   11 1
  23   10   33 1
  24   10   34 1
  25   11   12 1
  26   11   35 1
  27   11   36 1
  28   12   13 am
  29   12   37 1
  30   13   14 1
  31   13   15 2
  32   14   16 2
  33   14   19 1
  34   16   17 1
  35   16   38 1
  36   17   18 2
  37   17   39 1
  38   18   19 1
  39   18   40 1
  40   20   22 1
  41   21   22 1
  42   21   41 1
  43   21   42 1
  44   21   43 1
  45   22   44 1
  46   22   45 1

#	End of record

