#	Name: ASD05430584
#	Creating user name:	WinNT
#	Creation time:	15. 06. 2019 21:00

#	Modifying user name:	WinNT
#	Modification time:	15. 06. 2019 21:00

#	Program:	/corina/corina34_cracker 3.40 0067  02.08.2006

@<TRIPOS>MOLECULE
ASD05430584
  33   34    0    0    0
SMALL
NO_CHARGES


@<TRIPOS>ATOM
   1 C1            -0.0169     1.3935     0.0097 C.ar    
   2 C2             0.0021    -0.0041     0.0020 C.ar    
   3 C3             1.1873     2.1039     0.0020 C.ar    
   4 C4             2.3865     1.4313    -0.0135 C.ar    
   5 C5             2.4083     0.0434    -0.0217 C.ar    
   6 C6             1.2475    -0.6677    -0.0138 C.ar    
   7 C7             1.1709     3.6108     0.0103 C.3     
   8 C8             1.2927    -2.1740    -0.0225 C.3     
   9 C9             2.0162    -2.6552    -1.2818 C.3     
  10 C10            2.0417    -2.6690     1.2165 C.3     
  11 C11            1.8985     4.1219     1.2554 C.3     
  12 C12            1.8746     4.1354    -1.2429 C.3     
  13 C13           -1.3402    -0.5628     0.0114 C.2     
  14 C14           -2.3119     0.3278     0.0251 C.2     
  15 S15           -1.6810     1.9633     0.0215 S.3     
  16 H16            3.3141     1.9844    -0.0198 H       
  17 H17            3.3546    -0.4769    -0.0343 H       
  18 H18            0.1394     3.9629     0.0221 H       
  19 H19            0.2765    -2.5681    -0.0143 H       
  20 H20            3.0324    -2.2612    -1.2900 H       
  21 H21            2.0489    -3.7447    -1.2881 H       
  22 H22            1.4826    -2.3026    -2.1645 H       
  23 H23            3.0579    -2.2749     1.2083 H       
  24 H24            1.5263    -2.3261     2.1137 H       
  25 H25            2.0743    -3.7585     1.2102 H       
  26 H26            2.9300     3.7698     1.2437 H       
  27 H27            1.8867     5.2118     1.2614 H       
  28 H28            1.3972     3.7482     2.1482 H       
  29 H29            1.8628     5.2253    -1.2369 H       
  30 H30            2.9061     3.7833    -1.2547 H       
  31 H31            1.3563     3.7713    -2.1300 H       
  32 H32           -1.5269    -1.6266     0.0071 H       
  33 H33           -3.3633     0.0812     0.0335 H       
@<TRIPOS>BOND
   1    1    2 ar
   2    1    3 ar
   3    1   15 1
   4    2   13 1
   5    2    6 ar
   6    3    4 ar
   7    3    7 1
   8    4    5 ar
   9    4   16 1
  10    5    6 ar
  11    5   17 1
  12    6    8 1
  13    7   11 1
  14    7   12 1
  15    7   18 1
  16    8    9 1
  17    8   10 1
  18    8   19 1
  19    9   20 1
  20    9   21 1
  21    9   22 1
  22   10   23 1
  23   10   24 1
  24   10   25 1
  25   11   26 1
  26   11   27 1
  27   11   28 1
  28   12   29 1
  29   12   30 1
  30   12   31 1
  31   13   14 2
  32   13   32 1
  33   14   15 1
  34   14   33 1

#	End of record

