#	Name: ASD04390002
#	Creating user name:	WinNT
#	Creation time:	15. 06. 2019 20:49

#	Modifying user name:	WinNT
#	Modification time:	15. 06. 2019 20:49

#	Program:	/corina/corina34_cracker 3.40 0067  02.08.2006

@<TRIPOS>MOLECULE
ASD04390002
  30   32    0    0    0
SMALL
NO_CHARGES


@<TRIPOS>ATOM
   1 O1             0.0021    -0.0041     0.0020 O.2     
   2 C2            -0.0144     1.2139     0.0087 C.2     
   3 N3             1.1379     1.9157     0.0015 N.am    
   4 C4             1.1427     3.2844     0.0089 C.2     
   5 C5            -0.0002     4.0113     0.0237 C.2     
   6 C6            -1.2550     3.3570     0.0322 C.ar    
   7 C7            -1.2862     1.9418     0.0186 C.ar    
   8 C8            -2.5143     1.2782     0.0267 C.ar    
   9 C9            -3.6723     2.0035     0.0476 C.ar    
  10 C10           -3.6437     3.3933     0.0609 C.ar    
  11 C11           -2.4584     4.0711     0.0475 C.ar    
  12 N12            2.3549     3.9474     0.0013 N.pl3   
  13 C13            3.6799     3.3104    -0.0143 C.3     
  14 C14            4.7315     4.4396     0.0085 C.3     
  15 C15            3.9444     5.6354     0.6067 C.3     
  16 C16            2.5340     5.4107     0.0012 C.3     
  17 H17            1.9827     1.4391    -0.0089 H       
  18 H18            0.0461     5.0903     0.0295 H       
  19 H19           -2.5491     0.1988     0.0161 H       
  20 H20           -4.6225     1.4901     0.0534 H       
  21 H21           -4.5722     3.9447     0.0774 H       
  22 H22           -2.4496     5.1510     0.0584 H       
  23 H23            3.7970     2.6769     0.8650 H       
  24 H24            3.7945     2.7153    -0.9203 H       
  25 H25            5.5715     4.1715     0.6494 H       
  26 H26            5.0730     4.6689    -1.0009 H       
  27 H27            3.9192     5.5813     1.6950 H       
  28 H28            4.3638     6.5849     0.2739 H       
  29 H29            2.4902     5.8035    -1.0147 H       
  30 H30            1.7741     5.8825     0.6242 H       
@<TRIPOS>BOND
   1    1    2 2
   2    2    3 am
   3    2    7 1
   4    3    4 1
   5    3   17 1
   6    4    5 2
   7    4   12 1
   8    5    6 1
   9    5   18 1
  10    6    7 ar
  11    6   11 ar
  12    7    8 ar
  13    8    9 ar
  14    8   19 1
  15    9   10 ar
  16    9   20 1
  17   10   11 ar
  18   10   21 1
  19   11   22 1
  20   12   13 1
  21   12   16 1
  22   13   14 1
  23   13   23 1
  24   13   24 1
  25   14   15 1
  26   14   25 1
  27   14   26 1
  28   15   16 1
  29   15   27 1
  30   15   28 1
  31   16   29 1
  32   16   30 1

#	End of record

