#	Name: ASD01915055
#	Creating user name:	WinNT
#	Creation time:	15. 06. 2019 20:04

#	Modifying user name:	WinNT
#	Modification time:	15. 06. 2019 20:04

#	Program:	/corina/corina34_cracker 3.40 0067  02.08.2006

@<TRIPOS>MOLECULE
ASD01915055
  32   34    0    0    0
SMALL
NO_CHARGES


@<TRIPOS>ATOM
   1 C1            -0.0180     1.4737     0.0101 C.2     
   2 C2             0.0021    -0.0041     0.0020 C.ar    
   3 C3             1.2187    -0.6886    -0.0133 C.ar    
   4 C4             1.2301    -2.0690    -0.0203 C.ar    
   5 C5             0.0380    -2.7739    -0.0127 C.ar    
   6 C6            -1.1703    -2.1008     0.0020 C.ar    
   7 C7            -1.1953    -0.7213     0.0154 C.ar    
   8 O8             1.0263     2.0957     0.0035 O.2     
   9 N9            -1.1942     2.1316     0.0193 N.am    
  10 C10           -1.2130     3.5150     0.0269 C.2     
  11 N11           -2.3411     4.2838     0.0364 N.pl3   
  12 C12           -1.9358     5.6074     0.0422 C.ar    
  13 C13           -0.5309     5.5856     0.0357 C.ar    
  14 N14           -0.1518     4.2811     0.0317 N.2     
  15 C15            0.1755     6.7908     0.0391 C.ar    
  16 C16           -0.5098     7.9851     0.0487 C.ar    
  17 C17           -1.8966     8.0009     0.0555 C.ar    
  18 C18           -2.6092     6.8195     0.0522 C.ar    
  19 C19           -3.7233     3.7983     0.0399 C.3     
  20 Cl20           2.7415    -2.9229    -0.0393 Cl      
  21 H21            2.1487    -0.1395    -0.0199 H       
  22 H22            0.0519    -3.8538    -0.0186 H       
  23 H23           -2.0964    -2.6565     0.0075 H       
  24 H24           -2.1396    -0.1975     0.0314 H       
  25 H25           -2.0276     1.6353     0.0206 H       
  26 H26            1.2555     6.7858     0.0345 H       
  27 H27            0.0368     8.9165     0.0512 H       
  28 H28           -2.4222     8.9444     0.0637 H       
  29 H29           -3.6890     6.8387     0.0568 H       
  30 H30           -4.0616     3.6723     1.0684 H       
  31 H31           -4.3633     4.5203    -0.4673 H       
  32 H32           -3.7734     2.8409    -0.4788 H       
@<TRIPOS>BOND
   1    1    2 1
   2    1    8 2
   3    1    9 am
   4    2    3 ar
   5    2    7 ar
   6    3    4 ar
   7    3   21 1
   8    4    5 ar
   9    4   20 1
  10    5    6 ar
  11    5   22 1
  12    6    7 ar
  13    6   23 1
  14    7   24 1
  15    9   10 1
  16    9   25 1
  17   10   11 1
  18   10   14 2
  19   11   12 1
  20   11   19 1
  21   12   13 ar
  22   12   18 ar
  23   13   14 1
  24   13   15 ar
  25   15   16 ar
  26   15   26 1
  27   16   17 ar
  28   16   27 1
  29   17   18 ar
  30   17   28 1
  31   18   29 1
  32   19   30 1
  33   19   31 1
  34   19   32 1

#	End of record

