#	Name: ASD03621001
#	Creating user name:	WinNT
#	Creation time:	15. 06. 2019 20:43

#	Modifying user name:	WinNT
#	Modification time:	15. 06. 2019 20:43

#	Program:	/corina/corina34_cracker 3.40 0067  02.08.2006

@<TRIPOS>MOLECULE
ASD03621001
  85   89    0    0    0
SMALL
NO_CHARGES


@<TRIPOS>ATOM
   1 C1            -0.7231     1.2472     0.8730 C.ar    
   2 C2            -0.6153    -0.1260     0.7572 C.ar    
   3 C3             0.6319    -0.7176     0.6821 C.ar    
   4 C4             1.7712     0.0642     0.7224 C.ar    
   5 C5             1.6634     1.4376     0.8372 C.ar    
   6 C6             0.4163     2.0290     0.9137 C.ar    
   7 C7             3.1308    -0.5807     0.6415 C.3     
   8 C8             3.5547    -0.6800    -0.8012 C.2     
   9 N9             4.7451    -1.2271    -1.1177 N.am    
  10 O10            2.8246    -0.2678    -1.6775 O.2     
  11 C11            5.1571    -1.3237    -2.5203 C.3     
  12 C12            4.5819    -2.5783    -3.1273 C.2     
  13 N13            5.2912    -3.7164    -3.1196 N.am    
  14 C14            6.7207    -3.8598    -2.7967 C.3     
  15 C15            7.2009    -2.6669    -1.9826 C.3     
  16 C16            6.6833    -1.3683    -2.6006 C.3     
  17 O17            3.4753    -2.5583    -3.6232 O.2     
  18 C18            4.7884    -5.0740    -3.3828 C.3     
  19 C19            5.7105    -6.0481    -2.6225 C.3     
  20 C20            6.7748    -5.1496    -1.9473 C.3     
  21 H21            7.3101    -3.9611    -3.7080 H       
  22 C22            3.3738    -5.2057    -2.8802 C.2     
  23 N23            2.7153    -6.3733    -3.0191 N.am    
  24 O24            2.8280    -4.2609    -2.3507 O.2     
  25 C25            1.3401    -6.5014    -2.5305 C.3     
  26 C26            1.0465    -7.9486    -2.2299 C.2     
  27 N27           -0.1665    -8.3076    -1.7649 N.am    
  28 O28            1.9017    -8.7902    -2.4065 O.2     
  29 C29            0.3697    -5.9955    -3.5998 C.3     
  30 C30            0.5815    -4.5187    -3.8121 C.ar    
  31 C31            1.4866    -4.0701    -4.7549 C.ar    
  32 N32            1.6774    -2.7792    -4.9464 N.ar    
  33 C33            1.0190    -1.8708    -4.2537 C.ar    
  34 C34            0.0973    -2.2446    -3.2938 C.ar    
  35 C35           -0.1337    -3.5926    -3.0677 C.ar    
  36 C36           -0.4890    -9.7243    -1.5770 C.3     
  37 C37           -1.7739   -10.0599    -2.3370 C.3     
  38 C38           -0.6887   -10.0087    -0.0870 C.3     
  39 C39            0.6119    -9.7956     0.6438 C.ar    
  40 C40            0.9192    -8.5503     1.1592 C.ar    
  41 C41            2.1122    -8.3549     1.8295 C.ar    
  42 C42            2.9978    -9.4049     1.9847 C.ar    
  43 C43            2.6901   -10.6504     1.4701 C.ar    
  44 C44            1.4951   -10.8469     0.8036 C.ar    
  45 C45           -1.5345    -9.9136    -3.8176 C.2     
  46 O46           -0.4233    -9.6783    -4.2296 O.2     
  47 O47           -2.5558   -10.0447    -4.6787 O.3     
  48 H48           -1.6975     1.7097     0.9271 H       
  49 H49           -1.5054    -0.7368     0.7258 H       
  50 H50            0.7161    -1.7905     0.5924 H       
  51 H51            2.5535     2.0483     0.8694 H       
  52 H52            0.3320     3.1019     1.0038 H       
  53 H53            3.8527     0.0231     1.1915 H       
  54 H54            3.0858    -1.5791     1.0766 H       
  55 H55            5.3290    -1.5568    -0.4169 H       
  56 H56            4.7905    -0.4549    -3.0669 H       
  57 H57            6.8307    -2.7535    -0.9611 H       
  58 H58            8.2908    -2.6525    -1.9704 H       
  59 H59            6.9921    -1.3163    -3.6447 H       
  60 H60            7.0994    -0.5188    -2.0591 H       
  61 H61            4.8253    -5.2840    -4.4518 H       
  62 H62            5.1441    -6.5955    -1.8691 H       
  63 H63            6.1854    -6.7405    -3.3175 H       
  64 H64            7.7614    -5.6092    -2.0053 H       
  65 H65            6.5044    -4.9419    -0.9120 H       
  66 H66            3.1518    -7.1290    -3.4426 H       
  67 H67            1.2206    -5.9102    -1.6225 H       
  68 H68           -0.8259    -7.6281    -1.5546 H       
  69 H69            0.5501    -6.5265    -4.5345 H       
  70 H70           -0.6551    -6.1724    -3.2733 H       
  71 H71            2.0446    -4.7849    -5.3416 H       
  72 H72            1.2022    -0.8226    -4.4383 H       
  73 H73           -0.4386    -1.4958    -2.7294 H       
  74 H74           -0.8479    -3.9141    -2.3242 H       
  75 H75            0.3286   -10.3366    -1.9574 H       
  76 H76           -2.0691   -11.0857    -2.1162 H       
  77 H77           -2.5671    -9.3791    -2.0281 H       
  78 H78           -1.4453    -9.3338     0.3135 H       
  79 H79           -1.0152   -11.0401     0.0455 H       
  80 H80            0.2273    -7.7299     1.0379 H       
  81 H81            2.3526    -7.3817     2.2315 H       
  82 H82            3.9303    -9.2520     2.5078 H       
  83 H83            3.3822   -11.4707     1.5911 H       
  84 H84            1.2547   -11.8200     0.4015 H       
  85 H85           -2.3533    -9.9425    -5.6188 H       
@<TRIPOS>BOND
   1    1    2 ar
   2    1    6 ar
   3    1   48 1
   4    2    3 ar
   5    2   49 1
   6    3    4 ar
   7    3   50 1
   8    4    5 ar
   9    4    7 1
  10    5    6 ar
  11    5   51 1
  12    6   52 1
  13    7    8 1
  14    7   53 1
  15    7   54 1
  16    8    9 am
  17    8   10 2
  18    9   11 1
  19    9   55 1
  20   11   12 1
  21   11   16 1
  22   11   56 1
  23   12   13 am
  24   12   17 2
  25   13   14 1
  26   13   18 1
  27   14   15 1
  28   14   21 1
  29   14   20 1
  30   15   16 1
  31   15   57 1
  32   15   58 1
  33   16   59 1
  34   16   60 1
  35   18   19 1
  36   18   22 1
  37   18   61 1
  38   19   20 1
  39   19   62 1
  40   19   63 1
  41   20   64 1
  42   20   65 1
  43   22   23 am
  44   22   24 2
  45   23   25 1
  46   23   66 1
  47   25   26 1
  48   25   29 1
  49   25   67 1
  50   26   27 am
  51   26   28 2
  52   27   36 1
  53   27   68 1
  54   29   30 1
  55   29   69 1
  56   29   70 1
  57   30   31 ar
  58   30   35 ar
  59   31   32 ar
  60   31   71 1
  61   32   33 ar
  62   33   34 ar
  63   33   72 1
  64   34   35 ar
  65   34   73 1
  66   35   74 1
  67   36   37 1
  68   36   38 1
  69   36   75 1
  70   37   45 1
  71   37   76 1
  72   37   77 1
  73   38   39 1
  74   38   78 1
  75   38   79 1
  76   39   40 ar
  77   39   44 ar
  78   40   41 ar
  79   40   80 1
  80   41   42 ar
  81   41   81 1
  82   42   43 ar
  83   42   82 1
  84   43   44 ar
  85   43   83 1
  86   44   84 1
  87   45   46 2
  88   45   47 1
  89   47   85 1

#	End of record

