#	Name: ASD01914862
#	Creating user name:	WinNT
#	Creation time:	15. 06. 2019 20:04

#	Modifying user name:	WinNT
#	Modification time:	15. 06. 2019 20:04

#	Program:	/corina/corina34_cracker 3.40 0067  02.08.2006

@<TRIPOS>MOLECULE
ASD01914862
  31   32    0    0    0
SMALL
NO_CHARGES


@<TRIPOS>ATOM
   1 C1            -0.0168     1.3893     0.0097 C.ar    
   2 C2             0.0021    -0.0041     0.0020 C.ar    
   3 C3             1.2341    -0.6631    -0.0133 C.ar    
   4 C4             2.3880     0.1019    -0.0202 C.ar    
   5 C5             2.2854     1.4808    -0.0118 C.ar    
   6 N6             1.1078     2.0750     0.0026 N.ar    
   7 N7            -2.7969    -2.3163    -0.3486 N.pl3   
   8 N8            -1.4782    -1.9199    -0.6045 N.2     
   9 C9            -1.2654    -0.7753     0.0104 C.2     
  10 C10           -2.4528    -0.4103     0.6792 C.2     
  11 C11           -3.3748    -1.3730     0.4418 C.2     
  12 O12           -2.6388     0.7108     1.4295 O.3     
  13 C13           -3.9268     0.8884     2.0225 C.3     
  14 C14           -3.9450     2.1933     2.8211 C.3     
  15 C15           -5.3240     2.3834     3.4560 C.3     
  16 C16           -5.3423     3.6883     4.2546 C.3     
  17 H17           -0.9621     1.9116     0.0170 H       
  18 H18            1.2849    -1.7419    -0.0192 H       
  19 H19            3.3578    -0.3732    -0.0316 H       
  20 H20            3.1835     2.0807    -0.0167 H       
  21 H21           -3.2246    -3.1211    -0.6808 H       
  22 H22           -4.3885    -1.3888     0.8139 H       
  23 H23           -4.6843     0.9308     1.2399 H       
  24 H24           -4.1387     0.0519     2.6884 H       
  25 H25           -3.1875     2.1509     3.6037 H       
  26 H26           -3.7331     3.0298     2.1552 H       
  27 H27           -6.0816     2.4258     2.6734 H       
  28 H28           -5.5359     1.5469     4.1219 H       
  29 H29           -4.5847     3.6459     5.0372 H       
  30 H30           -5.1304     4.5249     3.5888 H       
  31 H31           -6.3247     3.8238     4.7069 H       
@<TRIPOS>BOND
   1    1    2 ar
   2    1    6 ar
   3    1   17 1
   4    2    3 ar
   5    2    9 1
   6    3    4 ar
   7    3   18 1
   8    4    5 ar
   9    4   19 1
  10    5    6 ar
  11    5   20 1
  12    7    8 1
  13    7   11 1
  14    7   21 1
  15    8    9 2
  16    9   10 1
  17   10   11 2
  18   10   12 1
  19   11   22 1
  20   12   13 1
  21   13   14 1
  22   13   23 1
  23   13   24 1
  24   14   15 1
  25   14   25 1
  26   14   26 1
  27   15   16 1
  28   15   27 1
  29   15   28 1
  30   16   29 1
  31   16   30 1
  32   16   31 1

#	End of record

