#	Name: ASD01411286
#	Creating user name:	WinNT
#	Creation time:	15. 06. 2019 19:19

#	Modifying user name:	WinNT
#	Modification time:	15. 06. 2019 19:19

#	Program:	/corina/corina34_cracker 3.40 0067  02.08.2006

@<TRIPOS>MOLECULE
ASD01411286
  80   84    0    0    0
SMALL
NO_CHARGES


@<TRIPOS>ATOM
   1 C1            -1.3487     1.2922     0.2320 C.ar    
   2 C2            -1.5880    -0.0977     0.2398 C.ar    
   3 C3            -2.9029    -0.5827     0.1701 C.ar    
   4 C4            -3.9443     0.2877     0.0369 C.ar    
   5 C5            -3.7063     1.6630    -0.0375 C.ar    
   6 C6            -2.4113     2.1656     0.0840 C.ar    
   7 N7             0.0123     1.4774     0.3763 N.pl3   
   8 C8             0.6254     0.2456     0.3949 C.2     
   9 C9            -0.3219    -0.7255     0.3227 C.2     
  10 C10            0.6905     2.7680     0.5065 C.3     
  11 C11            0.3268     3.6710    -0.6421 C.2     
  12 N12            0.8210     4.9496    -0.6496 N.am    
  13 O13           -0.3865     3.2762    -1.5400 O.2     
  14 C14            0.4259     5.7591    -1.8301 C.3     
  15 C15           -2.5796     6.8939    -0.9550 C.3     
  16 C16           -4.8128     2.6202    -0.2585 C.2     
  17 O17           -5.9743     2.2657    -0.3209 O.2     
  18 N18           -4.4394     3.9400    -0.3883 N.am    
  19 C19           -3.9057     6.7052    -1.6967 C.3     
  20 N20           -4.9803     6.5277    -0.6856 N.am    
  21 S21           -5.6925     5.0105    -0.6742 S.o2    
  22 C22            2.0830     0.0155     0.4804 C.ar    
  23 C23            2.9572     0.7637    -0.3103 C.ar    
  24 C24           -0.0691    -2.2111     0.3296 C.3     
  25 C25           -0.7789    -2.8436     1.5284 C.3     
  26 C26           -0.5222    -4.3519     1.5355 C.3     
  27 C27           -1.0600    -4.9668     0.2418 C.3     
  28 C28           -0.3502    -4.3343    -0.9570 C.3     
  29 C29           -0.6069    -2.8260    -0.9641 C.3     
  30 C30            4.3157     0.5465    -0.2273 C.ar    
  31 C31            4.8153    -0.4154     0.6410 C.ar    
  32 C32            3.9490    -1.1617     1.4292 C.ar    
  33 C33            2.5895    -0.9465     1.3563 C.ar    
  34 O34           -6.1478     4.7628    -1.9973 O.2     
  35 O35           -6.5378     4.9644     0.4672 O.2     
  36 C36           -5.3860     7.5960     0.2310 C.3     
  37 C37           -0.1926     7.0677    -1.3339 C.3     
  38 O38            6.1549    -0.6271     0.7193 O.3     
  39 C39            6.6007    -1.6314     1.6329 C.3     
  40 N40           -1.5273     7.2308    -1.9225 N.3     
  41 C41           -1.6635     6.4321    -3.1479 C.3     
  42 H42           -3.0901    -1.6451     0.2215 H       
  43 H43           -4.9561    -0.0869    -0.0115 H       
  44 H44           -2.2387     3.2315     0.0620 H       
  45 H45            0.3928     3.2388     1.4434 H       
  46 H46            1.7689     2.6095     0.5128 H       
  47 H47            1.3840     5.2977     0.0594 H       
  48 H48            1.3048     5.9756    -2.4373 H       
  49 H49           -0.3048     5.2098    -2.4238 H       
  50 H50           -2.6798     7.7015    -0.2299 H       
  51 H51           -2.3169     5.9707    -0.4385 H       
  52 H52           -3.5158     4.2280    -0.3185 H       
  53 H53           -4.1153     7.5847    -2.3056 H       
  54 H54           -3.8495     5.8215    -2.3323 H       
  55 H55            2.5694     1.5114    -0.9863 H       
  56 H56            1.0025    -2.3970     0.4023 H       
  57 H57           -0.3958    -2.4056     2.4501 H       
  58 H58           -1.8504    -2.6577     1.4558 H       
  59 H59            0.5494    -4.5378     1.6081 H       
  60 H60           -1.0278    -4.8025     2.3895 H       
  61 H61           -0.8771    -6.0413     0.2468 H       
  62 H62           -2.1315    -4.7809     0.1691 H       
  63 H63            0.7214    -4.5202    -0.8844 H       
  64 H64           -0.7333    -4.7723    -1.8787 H       
  65 H65           -1.6784    -2.6401    -1.0367 H       
  66 H66           -0.1012    -2.3754    -1.8181 H       
  67 H67            4.9926     1.1249    -0.8387 H       
  68 H68            4.3413    -1.9088     2.1033 H       
  69 H69            1.9165    -1.5270     1.9698 H       
  70 H70           -6.1831     8.1830    -0.2253 H       
  71 H71           -5.7447     7.1586     1.1628 H       
  72 H72           -4.5322     8.2413     0.4376 H       
  73 H73           -0.2752     7.0418    -0.2474 H       
  74 H74            0.4401     7.9043    -1.6306 H       
  75 H75            6.2862    -1.3691     2.6430 H       
  76 H76            6.1680    -2.5926     1.3556 H       
  77 H77            7.6881    -1.6985     1.5968 H       
  78 H78           -2.5236     6.7841    -3.7173 H       
  79 H79           -0.7615     6.5353    -3.7510 H       
  80 H80           -1.8064     5.3841    -2.8844 H       
@<TRIPOS>BOND
   1    1    2 ar
   2    1    7 1
   3    1    6 ar
   4    2    3 ar
   5    2    9 1
   6    3    4 ar
   7    3   42 1
   8    4    5 ar
   9    4   43 1
  10    5    6 ar
  11    5   16 1
  12    6   44 1
  13    7    8 1
  14    7   10 1
  15    8    9 2
  16    8   22 1
  17    9   24 1
  18   10   11 1
  19   10   45 1
  20   10   46 1
  21   11   12 am
  22   11   13 2
  23   12   14 1
  24   12   47 1
  25   14   37 1
  26   14   48 1
  27   14   49 1
  28   15   19 1
  29   15   40 1
  30   15   50 1
  31   15   51 1
  32   16   17 2
  33   16   18 am
  34   18   21 am
  35   18   52 1
  36   19   20 1
  37   19   53 1
  38   19   54 1
  39   20   21 am
  40   20   36 1
  41   21   34 2
  42   21   35 2
  43   22   23 ar
  44   22   33 ar
  45   23   30 ar
  46   23   55 1
  47   24   25 1
  48   24   29 1
  49   24   56 1
  50   25   26 1
  51   25   57 1
  52   25   58 1
  53   26   27 1
  54   26   59 1
  55   26   60 1
  56   27   28 1
  57   27   61 1
  58   27   62 1
  59   28   29 1
  60   28   63 1
  61   28   64 1
  62   29   65 1
  63   29   66 1
  64   30   31 ar
  65   30   67 1
  66   31   32 ar
  67   31   38 1
  68   32   33 ar
  69   32   68 1
  70   33   69 1
  71   36   70 1
  72   36   71 1
  73   36   72 1
  74   37   40 1
  75   37   73 1
  76   37   74 1
  77   38   39 1
  78   39   75 1
  79   39   76 1
  80   39   77 1
  81   40   41 1
  82   41   78 1
  83   41   79 1
  84   41   80 1

#	End of record

