#	Name: ASD09890059
#	Creating user name:	WinNT
#	Creation time:	15. 06. 2019 21:24

#	Modifying user name:	WinNT
#	Modification time:	15. 06. 2019 21:24

#	Program:	/corina/corina34_cracker 3.40 0067  02.08.2006

@<TRIPOS>MOLECULE
ASD09890059
  43   45    0    0    0
SMALL
NO_CHARGES


@<TRIPOS>ATOM
   1 C1            -0.0167     1.3786     0.0096 C.ar    
   2 C2             0.0021    -0.0041     0.0020 C.ar    
   3 C3             1.2071    -0.6823    -0.0132 C.ar    
   4 C4             2.3964     0.0198    -0.0208 C.ar    
   5 C5             2.3811     1.4088    -0.0132 C.ar    
   6 C6             1.1689     2.0869     0.0021 C.ar    
   7 C7             4.9786     4.1066    -0.0226 C.2     
   8 N8             5.7306     4.3926    -1.1312 N.pl3   
   9 C9             6.9359     4.8318    -0.6561 C.2     
  10 N10            6.8680     4.7957     0.6546 N.2     
  11 N11            5.7113     4.3728     1.0216 N.2     
  12 S12            8.3177     5.3472    -1.6203 S.3     
  13 C13            9.4835     5.7652    -0.3004 C.3     
  14 C14           10.8365     6.1334    -0.9126 C.3     
  15 C15            8.9448     6.9538     0.4984 C.3     
  16 C16            5.3454     4.2617    -2.4734 C.ar    
  17 C17            5.2337     5.3874    -3.2778 C.ar    
  18 C18            4.8547     5.2553    -4.5995 C.ar    
  19 C19            4.5866     4.0033    -5.1214 C.ar    
  20 C20            4.6970     2.8801    -4.3225 C.ar    
  21 C21            5.0807     3.0055    -3.0016 C.ar    
  22 H22           -0.9265    -0.5555     0.0083 H       
  23 C23            3.5641     3.5869    -0.0124 C.3     
  24 N24            3.5821     2.1220    -0.0204 N.pl3   
  25 H25           -0.9596     1.9053     0.0170 H       
  26 H26            1.2182    -1.7622    -0.0187 H       
  27 H27            3.3371    -0.5105    -0.0323 H       
  28 H28            1.1535     3.1668     0.0077 H       
  29 H29            9.6055     4.9079     0.3617 H       
  30 H30           10.7145     6.9906    -1.5746 H       
  31 H31           11.5385     6.3851    -0.1177 H       
  32 H32           11.2202     5.2866    -1.4816 H       
  33 H33            7.9809     6.6916     0.9345 H       
  34 H34            9.6469     7.2056     1.2932 H       
  35 H35            8.8229     7.8111    -0.1637 H       
  36 H36            5.4427     6.3656    -2.8706 H       
  37 H37            4.7672     6.1309    -5.2257 H       
  38 H38            4.2900     3.9024    -6.1550 H       
  39 H39            4.4869     1.9034    -4.7329 H       
  40 H40            5.1671     2.1279    -2.3781 H       
  41 H41            3.0541     3.9391     0.8842 H       
  42 H42            3.0377     3.9486    -0.8956 H       
  43 H43            4.4279     1.6474    -0.0308 H       
@<TRIPOS>BOND
   1    1    2 ar
   2    1    6 ar
   3    1   25 1
   4    2    3 ar
   5    2   22 1
   6    3    4 ar
   7    3   26 1
   8    4    5 ar
   9    4   27 1
  10    5    6 ar
  11    5   24 1
  12    6   28 1
  13    7    8 1
  14    7   23 1
  15    7   11 2
  16    8    9 1
  17    8   16 1
  18    9   10 2
  19    9   12 1
  20   10   11 1
  21   12   13 1
  22   13   14 1
  23   13   15 1
  24   13   29 1
  25   14   30 1
  26   14   31 1
  27   14   32 1
  28   15   33 1
  29   15   34 1
  30   15   35 1
  31   16   17 ar
  32   16   21 ar
  33   17   18 ar
  34   17   36 1
  35   18   19 ar
  36   18   37 1
  37   19   20 ar
  38   19   38 1
  39   20   21 ar
  40   20   39 1
  41   21   40 1
  42   23   24 1
  43   23   41 1
  44   23   42 1
  45   24   43 1

#	End of record

