#	Name: ASD01820180
#	Creating user name:	WinNT
#	Creation time:	15. 06. 2019 19:36

#	Modifying user name:	WinNT
#	Modification time:	15. 06. 2019 19:36

#	Program:	/corina/corina34_cracker 3.40 0067  02.08.2006

@<TRIPOS>MOLECULE
ASD01820180
  96  101    0    0    0
SMALL
NO_CHARGES


@<TRIPOS>ATOM
   1 N1            -0.0162     1.3424     0.0094 N.am    
   2 C2             0.0021    -0.0041     0.0020 C.2     
   3 C3             1.2581     2.0651     0.0011 C.3     
   4 C4             1.6879     2.3244    -1.4442 C.3     
   5 C5             3.0188     3.0792    -1.4528 C.3     
   6 N6             3.4315     3.3282    -2.8405 N.4     
   7 C7             4.7092     4.0529    -2.8488 C.3     
   8 C8             5.1391     4.3123    -4.2941 C.3     
   9 C9             6.4699     5.0671    -4.3027 C.3     
  10 C10            6.8998     5.3264    -5.7480 C.3     
  11 C11            8.2306     6.0812    -5.7567 C.3     
  12 C12            8.6604     6.3406    -7.2020 C.3     
  13 N13            9.9382     7.0653    -7.2103 N.4     
  14 C14           10.3509     7.3143    -8.5980 C.3     
  15 C15           11.6817     8.0691    -8.6066 C.3     
  16 N16           13.3858     9.0511   -10.0602 N.am    
  17 O17            1.0653    -0.5943    -0.0105 O.2     
  18 C18           12.1116     8.3284   -10.0519 C.3     
  19 O19           12.3044    10.9879   -10.0451 O.2     
  20 C20            9.7791     8.3464    -6.5094 C.3     
  21 C21           10.9624     6.2598    -6.5319 C.3     
  22 C22            3.5906     2.0471    -3.5414 C.3     
  23 C23            2.4073     4.1337    -3.5189 C.3     
  24 C24           -1.2563    -0.7645     0.0095 C.ar    
  25 C25           -2.4782    -0.0540     0.0244 C.ar    
  26 C26           -2.4608     1.3594     0.0319 C.ar    
  27 C27           -1.1623     2.0492     0.0186 C.2     
  28 O28           -1.1232     3.2646     0.0247 O.2     
  29 C29           -1.2838    -2.1511     0.0027 C.ar    
  30 C30           -2.4995    -2.8254     0.0107 C.ar    
  31 C31           -3.6890    -2.1555     0.0251 C.ar    
  32 C32           -3.7049    -0.7497     0.0314 C.ar    
  33 C33           -4.9032    -0.0145     0.0467 C.ar    
  34 C34           -4.8675     1.3503     0.0528 C.ar    
  35 C35           -3.6649     2.0475     0.0461 C.ar    
  36 C36           14.5319     8.3444   -10.0749 C.2     
  37 C37           15.8304     9.0341   -10.0841 C.ar    
  38 C38           15.8479    10.4475   -10.0771 C.ar    
  39 C39           14.6260    11.1580   -10.0616 C.ar    
  40 C40           13.3675    10.3976   -10.0584 C.2     
  41 C41           17.0345     8.3460   -10.0998 C.ar    
  42 C42           18.2371     9.0432   -10.1085 C.ar    
  43 C43           18.2728    10.4080   -10.1019 C.ar    
  44 C44           17.0745    11.1432   -10.0851 C.ar    
  45 C45           17.0586    12.5491   -10.0782 C.ar    
  46 C46           15.8691    13.2189   -10.0623 C.ar    
  47 C47           14.6535    12.5446   -10.0544 C.ar    
  48 O48           14.4928     7.1289   -10.0803 O.2     
  49 H49            1.1400     3.0157     0.5212 H       
  50 H50            2.0180     1.4674     0.5045 H       
  51 H51            1.8060     1.3738    -1.9643 H       
  52 H52            0.9280     2.9221    -1.9476 H       
  53 H53            2.9007     4.0298    -0.9327 H       
  54 H54            3.7787     2.4816    -0.9494 H       
  55 H55            4.5912     5.0036    -2.3287 H       
  56 H56            5.4692     3.4553    -2.3454 H       
  57 H57            5.2571     3.3617    -4.8142 H       
  58 H58            4.3791     4.9099    -4.7975 H       
  59 H59            6.3519     6.0177    -3.7826 H       
  60 H60            7.2299     4.4694    -3.7993 H       
  61 H61            7.0178     4.3758    -6.2681 H       
  62 H62            6.1398     5.9241    -6.2514 H       
  63 H63            8.1125     7.0318    -5.2366 H       
  64 H64            8.9905     5.4836    -5.2533 H       
  65 H65            8.7785     5.3900    -7.7221 H       
  66 H66            7.9005     6.9382    -7.7054 H       
  67 H67           10.4689     6.3637    -9.1181 H       
  68 H68            9.5909     7.9119    -9.1014 H       
  69 H69           11.5637     9.0197    -8.0865 H       
  70 H70           12.4417     7.4714    -8.1032 H       
  71 H71           12.2296     7.3778   -10.5720 H       
  72 H72           11.3516     8.9261   -10.5553 H       
  73 H73            9.4729     8.1616    -5.4797 H       
  74 H74           10.7272     8.8841    -6.5155 H       
  75 H75            9.0191     8.9441    -7.0128 H       
  76 H76           11.0804     5.3092    -7.0520 H       
  77 H77           11.9105     6.7975    -6.5380 H       
  78 H78           10.6561     6.0751    -5.5022 H       
  79 H79            2.6425     1.5094    -3.5353 H       
  80 H80            3.8968     2.2319    -4.5711 H       
  81 H81            4.3505     1.4494    -3.0380 H       
  82 H82            2.2892     5.0843    -2.9988 H       
  83 H83            2.7135     4.3184    -4.5486 H       
  84 H84            1.4592     3.5960    -3.5127 H       
  85 H85           -0.3587    -2.7083    -0.0090 H       
  86 H86           -2.5030    -3.9054     0.0049 H       
  87 H87           -4.6183    -2.7058     0.0310 H       
  88 H88           -5.8524    -0.5296     0.0532 H       
  89 H89           -5.7961     1.9016     0.0642 H       
  90 H90           -3.6682     3.1275     0.0512 H       
  91 H91           17.0378     7.2660   -10.1050 H       
  92 H92           19.1657     8.4919   -10.1203 H       
  93 H93           19.2220    10.9231   -10.1089 H       
  94 H94           17.9879    13.0994   -10.0851 H       
  95 H95           15.8726    14.2989   -10.0568 H       
  96 H96           13.7284    13.1018   -10.0418 H       
@<TRIPOS>BOND
   1    1    2 am
   2    1    3 1
   3    1   27 am
   4    2   17 2
   5    2   24 1
   6    3    4 1
   7    3   49 1
   8    3   50 1
   9    4    5 1
  10    4   51 1
  11    4   52 1
  12    5    6 1
  13    5   53 1
  14    5   54 1
  15    6    7 1
  16    6   22 1
  17    6   23 1
  18    7    8 1
  19    7   55 1
  20    7   56 1
  21    8    9 1
  22    8   57 1
  23    8   58 1
  24    9   10 1
  25    9   59 1
  26    9   60 1
  27   10   11 1
  28   10   61 1
  29   10   62 1
  30   11   12 1
  31   11   63 1
  32   11   64 1
  33   12   13 1
  34   12   65 1
  35   12   66 1
  36   13   14 1
  37   13   20 1
  38   13   21 1
  39   14   15 1
  40   14   67 1
  41   14   68 1
  42   15   18 1
  43   15   69 1
  44   15   70 1
  45   16   36 am
  46   16   18 1
  47   16   40 am
  48   18   71 1
  49   18   72 1
  50   19   40 2
  51   20   73 1
  52   20   74 1
  53   20   75 1
  54   21   76 1
  55   21   77 1
  56   21   78 1
  57   22   79 1
  58   22   80 1
  59   22   81 1
  60   23   82 1
  61   23   83 1
  62   23   84 1
  63   24   25 ar
  64   24   29 ar
  65   25   26 ar
  66   25   32 ar
  67   26   27 1
  68   26   35 ar
  69   27   28 2
  70   29   30 ar
  71   29   85 1
  72   30   31 ar
  73   30   86 1
  74   31   32 ar
  75   31   87 1
  76   32   33 ar
  77   33   34 ar
  78   33   88 1
  79   34   35 ar
  80   34   89 1
  81   35   90 1
  82   36   37 1
  83   36   48 2
  84   37   38 ar
  85   37   41 ar
  86   38   39 ar
  87   38   44 ar
  88   39   40 1
  89   39   47 ar
  90   41   42 ar
  91   41   91 1
  92   42   43 ar
  93   42   92 1
  94   43   44 ar
  95   43   93 1
  96   44   45 ar
  97   45   46 ar
  98   45   94 1
  99   46   47 ar
 100   46   95 1
 101   47   96 1

#	End of record

