#	Name: ASD04882597
#	Creating user name:	WinNT
#	Creation time:	15. 06. 2019 20:55

#	Modifying user name:	WinNT
#	Modification time:	15. 06. 2019 20:55

#	Program:	/corina/corina34_cracker 3.40 0067  02.08.2006

@<TRIPOS>MOLECULE
ASD04882597
  66   71    0    0    0
SMALL
NO_CHARGES


@<TRIPOS>ATOM
   1 C1             0.2956     1.4147     0.0523 C.ar    
   2 C2             0.1493     0.0975    -0.3917 C.ar    
   3 C3            -1.1196    -0.4307    -0.6002 C.ar    
   4 C4            -2.2366     0.3415    -0.3708 C.ar    
   5 C5            -2.0974     1.6594     0.0732 C.ar    
   6 C6            -0.8230     2.1910     0.2897 C.ar    
   7 N7             1.2760    -0.6865    -0.6258 N.3     
   8 C8             1.2714    -1.8832     0.2272 C.3     
   9 C9             1.3754    -1.0552    -2.0449 C.3     
  10 C10            2.6650    -1.8470    -2.2744 C.3     
  11 N11            2.6603    -3.0437    -1.4214 N.3     
  12 C12            2.5609    -2.6750    -0.0023 C.3     
  13 C13           -3.2942     2.4864     0.3189 C.2     
  14 O14           -3.1745     3.6713     0.5645 O.2     
  15 N15           -4.5202     1.9286     0.2713 N.am    
  16 N16            1.5749     1.9458     0.2620 N.am    
  17 C17            3.7905    -3.8301    -1.6562 C.ar    
  18 C18            3.6479    -5.1393    -2.0974 C.ar    
  19 C19            4.7676    -5.9142    -2.3292 C.ar    
  20 C20            6.0293    -5.3880    -2.1220 C.ar    
  21 C21            6.1749    -4.0847    -1.6826 C.ar    
  22 C22            5.0599    -3.3027    -1.4545 C.ar    
  23 C23            1.7452     2.9773     1.1125 C.2     
  24 C24            3.0603     3.6132     1.2398 C.2     
  25 C25            3.3691     4.6611     2.0593 C.2     
  26 C26            4.7298     4.9420     1.8597 C.2     
  27 C27            5.1862     4.0646     0.9390 C.2     
  28 O28            4.1788     3.2618     0.5722 O.3     
  29 O29            0.8074     3.3811     1.7750 O.2     
  30 C30            2.2731    -5.7140    -2.3226 C.3     
  31 C31           -5.9045     2.4013     0.4469 C.3     
  32 C32           -6.2703     0.9805     0.8504 C.3     
  33 C33           -5.0598     0.5819     0.0144 C.3     
  34 C34           -6.4327     0.5627     2.3101 C.3     
  35 O35           -7.4080    -0.3740     1.8020 O.3     
  36 C36           -7.6584     0.3939     0.6042 C.3     
  37 H37           -1.2296    -1.4489    -0.9433 H       
  38 H38           -3.2210    -0.0716    -0.5345 H       
  39 H39           -0.7123     3.2091     0.6328 H       
  40 H40            1.2098    -1.5838     1.2734 H       
  41 H41            0.4127    -2.5058    -0.0244 H       
  42 H42            0.5180    -1.6684    -2.3223 H       
  43 H43            1.3897    -0.1521    -2.6551 H       
  44 H44            2.7265    -2.1464    -3.3206 H       
  45 H45            3.5236    -1.2244    -2.0228 H       
  46 H46            3.4183    -2.0618     0.2751 H       
  47 H47            2.5466    -3.5781     0.6079 H       
  48 H48            2.3382     1.5711    -0.2049 H       
  49 H49            4.6575    -6.9323    -2.6722 H       
  50 H50            6.9032    -5.9962    -2.3032 H       
  51 H51            7.1618    -3.6768    -1.5214 H       
  52 H52            5.1742    -2.2849    -1.1118 H       
  53 H53            2.6966     5.1744     2.7305 H       
  54 H54            5.3039     5.7145     2.3497 H       
  55 H55            6.1979     4.0156     0.5641 H       
  56 H56            1.9650    -5.5268    -3.3513 H       
  57 H57            2.2939    -6.7883    -2.1394 H       
  58 H58            1.5660    -5.2426    -1.6400 H       
  59 H59           -6.0180     3.1257     1.2534 H       
  60 H60           -6.3749     2.7248    -0.4816 H       
  61 H61           -5.2964     0.3967    -1.0334 H       
  62 H62           -4.4656    -0.2152     0.4612 H       
  63 H63           -5.5471     0.0916     2.7366 H       
  64 H64           -6.8553     1.3390     2.9480 H       
  65 H65           -8.4681     1.1168     0.7034 H       
  66 H66           -7.7297    -0.2091    -0.3010 H       
@<TRIPOS>BOND
   1    1    2 ar
   2    1   16 1
   3    1    6 ar
   4    2    3 ar
   5    2    7 1
   6    3    4 ar
   7    3   37 1
   8    4    5 ar
   9    4   38 1
  10    5    6 ar
  11    5   13 1
  12    6   39 1
  13    7    8 1
  14    7    9 1
  15    8   12 1
  16    8   40 1
  17    8   41 1
  18    9   10 1
  19    9   42 1
  20    9   43 1
  21   10   11 1
  22   10   44 1
  23   10   45 1
  24   11   12 1
  25   11   17 1
  26   12   46 1
  27   12   47 1
  28   13   14 2
  29   13   15 am
  30   15   31 1
  31   15   33 1
  32   16   23 am
  33   16   48 1
  34   17   18 ar
  35   17   22 ar
  36   18   19 ar
  37   18   30 1
  38   19   20 ar
  39   19   49 1
  40   20   21 ar
  41   20   50 1
  42   21   22 ar
  43   21   51 1
  44   22   52 1
  45   23   24 1
  46   23   29 2
  47   24   25 2
  48   24   28 1
  49   25   26 1
  50   25   53 1
  51   26   27 2
  52   26   54 1
  53   27   28 1
  54   27   55 1
  55   30   56 1
  56   30   57 1
  57   30   58 1
  58   31   32 1
  59   31   59 1
  60   31   60 1
  61   32   33 1
  62   32   34 1
  63   32   36 1
  64   33   61 1
  65   33   62 1
  66   34   35 1
  67   34   63 1
  68   34   64 1
  69   35   36 1
  70   36   65 1
  71   36   66 1

#	End of record

