#	Name: ASD01840343
#	Creating user name:	WinNT
#	Creation time:	15. 06. 2019 19:37

#	Modifying user name:	WinNT
#	Modification time:	15. 06. 2019 19:37

#	Program:	/corina/corina34_cracker 3.40 0067  02.08.2006

@<TRIPOS>MOLECULE
ASD01840343
  46   49    0    0    0
SMALL
NO_CHARGES


@<TRIPOS>ATOM
   1 C1             0.9222     0.1976     0.0588 C.3     
   2 O2             0.7686    -1.2156    -0.0877 O.3     
   3 C3            -0.4987    -1.7061    -0.0468 C.ar    
   4 C4            -1.5714    -0.8451     0.1248 C.ar    
   5 C5            -2.8591    -1.3459     0.1656 C.ar    
   6 C6            -3.0789    -2.7043     0.0356 C.ar    
   7 C7            -4.4843    -3.2465     0.0806 C.3     
   8 N8            -5.0405    -3.2747    -1.2744 N.am    
   9 C9            -6.2942    -3.7251    -1.4790 C.2     
  10 O10           -6.9648    -4.1087    -0.5373 O.2     
  11 C11           -6.8314    -3.7525    -2.7881 C.2     
  12 S12           -5.9740    -3.2383    -4.2275 S.3     
  13 C13           -7.3431    -3.6140    -5.2676 C.2     
  14 C14           -8.3968    -4.1102    -4.5159 C.2     
  15 C15           -8.0806    -4.1864    -3.1012 C.2     
  16 N16           -8.9771    -4.6572    -2.1510 N.pl3   
  17 C17           -9.6074    -4.4770    -5.1802 C.2     
  18 C18          -10.7668    -5.0184    -4.3842 C.3     
  19 C19           -9.7159    -4.3394    -6.5203 C.2     
  20 C20           -8.6306    -3.8322    -7.2643 C.2     
  21 N21           -8.4600    -3.5958    -8.5596 N.2     
  22 C22           -7.2424    -3.1106    -8.7678 C.2     
  23 C23           -6.6805    -2.7204   -10.1106 C.3     
  24 N24           -6.6032    -3.0222    -7.6263 N.2     
  25 N25           -7.4768    -3.4823    -6.6309 N.pl3   
  26 C26           -2.0116    -3.5669    -0.1362 C.ar    
  27 C27           -0.7215    -3.0709    -0.1827 C.ar    
  28 F28            0.3210    -3.9127    -0.3552 F       
  29 H29            1.9801     0.4553     0.0076 H       
  30 H30            0.3852     0.7064    -0.7418 H       
  31 H31            0.5186     0.5090     1.0222 H       
  32 H32           -1.4011     0.2165     0.2269 H       
  33 H33           -3.6947    -0.6749     0.2997 H       
  34 H34           -4.4710    -4.2569     0.4891 H       
  35 H35           -5.1003    -2.6071     0.7129 H       
  36 H36           -4.5064    -2.9693    -2.0243 H       
  37 H37           -9.9309    -4.6186    -2.3230 H       
  38 H38           -8.6495    -5.0248    -1.3153 H       
  39 H39          -11.3504    -4.1899    -3.9829 H       
  40 H40          -11.3981    -5.6280    -5.0306 H       
  41 H41          -10.3904    -5.6289    -3.5634 H       
  42 H42          -10.6318    -4.6176    -7.0204 H       
  43 H43           -6.9041    -1.6719   -10.3072 H       
  44 H44           -5.6005    -2.8676   -10.1092 H       
  45 H45           -7.1305    -3.3396   -10.8865 H       
  46 H46           -2.1860    -4.6278    -0.2379 H       
@<TRIPOS>BOND
   1    1    2 1
   2    1   29 1
   3    1   30 1
   4    1   31 1
   5    2    3 1
   6    3   27 ar
   7    3    4 ar
   8    4    5 ar
   9    4   32 1
  10    5    6 ar
  11    5   33 1
  12    6    7 1
  13    6   26 ar
  14    7    8 1
  15    7   34 1
  16    7   35 1
  17    8    9 am
  18    8   36 1
  19    9   10 2
  20    9   11 1
  21   11   15 2
  22   11   12 1
  23   12   13 1
  24   13   25 1
  25   13   14 2
  26   14   15 1
  27   14   17 1
  28   15   16 1
  29   16   37 1
  30   16   38 1
  31   17   18 1
  32   17   19 2
  33   18   39 1
  34   18   40 1
  35   18   41 1
  36   19   20 1
  37   19   42 1
  38   20   25 1
  39   20   21 2
  40   21   22 1
  41   22   23 1
  42   22   24 2
  43   23   43 1
  44   23   44 1
  45   23   45 1
  46   24   25 1
  47   26   27 ar
  48   26   46 1
  49   27   28 1

#	End of record

