#	Name: ASD03330622
#	Creating user name:	WinNT
#	Creation time:	15. 06. 2019 20:37

#	Modifying user name:	WinNT
#	Modification time:	15. 06. 2019 20:37

#	Program:	/corina/corina34_cracker 3.40 0067  02.08.2006

@<TRIPOS>MOLECULE
ASD03330622
  63   65    0    0    0
SMALL
NO_CHARGES


@<TRIPOS>ATOM
   1 C1            -0.3222     1.1718     0.8549 C.2     
   2 N2            -0.3517    -0.1671     1.0892 N.pl3   
   3 C3             0.9833     1.5571     0.8982 C.2     
   4 N4             1.7299     0.4570     1.1388 N.2     
   5 C5             0.9375    -0.5832     1.2491 C.2     
   6 C6             1.3701    -1.9748     1.5042 C.ar    
   7 C7             1.4908     2.9283     0.7151 C.2     
   8 O8             0.7150     3.8405     0.5024 O.2     
   9 C9             3.3192     4.5349     0.6011 C.3     
  10 N10            2.8146     3.1716     0.7832 N.am    
  11 C11            3.4925     4.8193    -0.8922 C.3     
  12 C12            2.1240     4.8051    -1.5763 C.3     
  13 C13            4.1412     6.1925    -1.0779 C.3     
  14 C14            4.3856     3.7449    -1.5157 C.3     
  15 C15            4.6485     4.6757     1.2969 C.2     
  16 N16            5.1859     5.8976     1.4826 N.am    
  17 O17            5.2348     3.6893     1.6898 O.2     
  18 C18            6.5107     6.0301     2.0937 C.3     
  19 C19           -1.5620    -0.9898     1.1661 C.3     
  20 C20           -2.4707    -0.6588    -0.0219 C.3     
  21 C21           -3.3809     0.5118     0.3355 C.3     
  22 N22           -2.7021     1.4540     1.2272 N.3     
  23 C23           -1.5200     2.0440     0.5814 C.3     
  24 C24           -3.6251     2.4986     1.6906 C.3     
  25 C25            2.6199    -2.4063     1.0699 C.ar    
  26 C26            3.0216    -3.7193     1.3142 C.ar    
  27 C27            2.1655    -4.5934     1.9939 C.ar    
  28 C28            0.9240    -4.1550     2.4216 C.ar    
  29 C29            0.5266    -2.8554     2.1864 C.ar    
  30 F30            2.5509    -5.8661     2.2325 F       
  31 C31            4.3451    -4.1858     0.8569 C.2     
  32 O32            5.1673    -3.3427     0.2023 O.3     
  33 O33            4.6931    -5.3299     1.0706 O.2     
  34 H34            2.6096     5.2447     1.0262 H       
  35 H35            3.4334     2.4441     0.9528 H       
  36 H36            1.4877     5.5705    -1.1321 H       
  37 H37            2.2475     5.0077    -2.6401 H       
  38 H38            1.6619     3.8268    -1.4440 H       
  39 H39            5.1005     6.2141    -0.5609 H       
  40 H40            4.2967     6.3803    -2.1403 H       
  41 H41            3.4885     6.9616    -0.6647 H       
  42 H42            3.9235     2.7666    -1.3835 H       
  43 H43            4.5091     3.9475    -2.5796 H       
  44 H44            5.3605     3.7551    -1.0284 H       
  45 H45            4.6954     6.6894     1.2115 H       
  46 H46            7.2469     5.5089     1.4818 H       
  47 H47            6.7758     7.0852     2.1612 H       
  48 H48            6.4951     5.5947     3.0929 H       
  49 H49           -1.2883    -2.0444     1.1327 H       
  50 H50           -2.0879    -0.7782     2.0971 H       
  51 H51           -1.8584    -0.3920    -0.8833 H       
  52 H52           -3.0791    -1.5295    -0.2665 H       
  53 H53           -3.6721     1.0303    -0.5780 H       
  54 H54           -4.2747     0.1317     0.8302 H       
  55 H55           -1.3442     3.0413     0.9844 H       
  56 H56           -1.6862     2.1082    -0.4939 H       
  57 H57           -4.4519     2.0388     2.2320 H       
  58 H58           -3.0952     3.1848     2.3512 H       
  59 H59           -4.0133     3.0473     0.8325 H       
  60 H60            3.2759    -1.7272     0.5456 H       
  61 H61            0.2657    -4.8322     2.9455 H       
  62 H62           -0.4431    -2.5197     2.5230 H       
  63 H63            6.0237    -3.6937    -0.0775 H       
@<TRIPOS>BOND
   1    1    2 1
   2    1    3 2
   3    1   23 1
   4    2   19 1
   5    2    5 1
   6    3    4 1
   7    3    7 1
   8    4    5 2
   9    5    6 1
  10    6   25 ar
  11    6   29 ar
  12    7    8 2
  13    7   10 am
  14    9   10 1
  15    9   11 1
  16    9   15 1
  17    9   34 1
  18   10   35 1
  19   11   12 1
  20   11   13 1
  21   11   14 1
  22   12   36 1
  23   12   37 1
  24   12   38 1
  25   13   39 1
  26   13   40 1
  27   13   41 1
  28   14   42 1
  29   14   43 1
  30   14   44 1
  31   15   16 am
  32   15   17 2
  33   16   18 1
  34   16   45 1
  35   18   46 1
  36   18   47 1
  37   18   48 1
  38   19   20 1
  39   19   49 1
  40   19   50 1
  41   20   21 1
  42   20   51 1
  43   20   52 1
  44   21   22 1
  45   21   53 1
  46   21   54 1
  47   22   23 1
  48   22   24 1
  49   23   55 1
  50   23   56 1
  51   24   57 1
  52   24   58 1
  53   24   59 1
  54   25   26 ar
  55   25   60 1
  56   26   27 ar
  57   26   31 1
  58   27   28 ar
  59   27   30 1
  60   28   29 ar
  61   28   61 1
  62   29   62 1
  63   31   32 1
  64   31   33 2
  65   32   63 1

#	End of record

