#	Name: ASD01882491
#	Creating user name:	WinNT
#	Creation time:	15. 06. 2019 19:44

#	Modifying user name:	WinNT
#	Modification time:	15. 06. 2019 19:44

#	Program:	/corina/corina34_cracker 3.40 0067  02.08.2006

@<TRIPOS>MOLECULE
ASD01882491
  58   62    0    0    0
SMALL
NO_CHARGES


@<TRIPOS>ATOM
   1 C1             0.0717     1.3102     0.5644 C.2     
   2 C2             0.0111    -0.0129     0.0862 C.2     
   3 C3             1.1210    -0.5700    -0.4688 C.2     
   4 C4             2.3072     0.1786    -0.5573 C.2     
   5 C5             2.3505     1.4456    -0.0943 C.2     
   6 N6             1.2451     2.0168     0.4642 N.pl3   
   7 N7            -0.2585     3.2463     1.3918 N.2     
   8 N8            -0.8115     2.1130     1.1353 N.2     
   9 C9             0.9904     3.2399     1.0030 C.2     
  10 C10           -1.2682    -0.8027     0.1888 C.3     
  11 F11           -1.1800    -1.6962     1.2616 F       
  12 F12           -2.3405     0.0715     0.3970 F       
  13 F13           -1.4720    -1.5165    -0.9970 F       
  14 C14            1.0790    -1.9846    -0.9866 C.3     
  15 N15            0.7758    -1.9712    -2.4239 N.3     
  16 C16            0.9586    -3.3050    -3.0131 C.3     
  17 C17            0.5575    -3.2668    -4.4897 C.3     
  18 N18            1.3755    -2.2677    -5.1911 N.3     
  19 C19            1.1927    -0.9339    -4.6019 C.3     
  20 C20            1.5938    -0.9721    -3.1254 C.3     
  21 C21            1.0899    -2.2550    -6.5454 C.ar    
  22 N22            1.7375    -1.4110    -7.3351 N.ar    
  23 C23            1.4883    -1.3735    -8.6336 C.ar    
  24 C24            0.5373    -2.2306    -9.1647 C.ar    
  25 C25           -0.1214    -3.1007    -8.3102 C.ar    
  26 N26            0.1791    -3.0910    -7.0220 N.ar    
  27 C27           -1.1634    -4.0501    -8.8431 C.3     
  28 C28            2.2292    -0.4101    -9.5247 C.3     
  29 C29            1.9679     4.3802     1.1268 C.3     
  30 C30            1.8949     5.2530    -0.1276 C.3     
  31 C31            2.7305     6.5346    -0.1461 C.3     
  32 C32            3.1467     5.3375    -1.0033 C.3     
  33 H33            3.1890    -0.2626    -0.9978 H       
  34 H34            3.2674     2.0116    -0.1670 H       
  35 H35            2.0462    -2.4600    -0.8237 H       
  36 H36            0.3063    -2.5424    -0.4574 H       
  37 H37            2.0045    -3.6000    -2.9280 H       
  38 H38            0.3333    -4.0248    -2.4849 H       
  39 H39            0.7197    -4.2479    -4.9360 H       
  40 H40           -0.4956    -2.9984    -4.5736 H       
  41 H41            1.8180    -0.2141    -5.1301 H       
  42 H42            0.1468    -0.6389    -4.6871 H       
  43 H43            1.4316     0.0090    -2.6790 H       
  44 H44            2.6469    -1.2405    -3.0415 H       
  45 H45            0.3142    -2.2205   -10.2213 H       
  46 H46           -0.6873    -4.9871    -9.1319 H       
  47 H47           -1.9076    -4.2436    -8.0706 H       
  48 H48           -1.6488    -3.6061    -9.7122 H       
  49 H49            3.1355    -0.8855    -9.8997 H       
  50 H50            1.5928    -0.1285   -10.3637 H       
  51 H51            2.4949     0.4806    -8.9554 H       
  52 H52            1.7176     4.9800     2.0019 H       
  53 H53            2.9773     3.9833     1.2351 H       
  54 H54            0.9273     5.2759    -0.6288 H       
  55 H55            2.3127     7.4004    -0.6598 H       
  56 H56            3.3322     6.7559     0.7354 H       
  57 H57            4.0223     4.7713    -0.6857 H       
  58 H58            3.0028     5.4158    -2.0809 H       
@<TRIPOS>BOND
   1    1    2 1
   2    1    6 1
   3    1    8 2
   4    2    3 2
   5    2   10 1
   6    3    4 1
   7    3   14 1
   8    4    5 2
   9    4   33 1
  10    5    6 1
  11    5   34 1
  12    6    9 1
  13    7    8 1
  14    7    9 2
  15    9   29 1
  16   10   11 1
  17   10   12 1
  18   10   13 1
  19   14   15 1
  20   14   35 1
  21   14   36 1
  22   15   16 1
  23   15   20 1
  24   16   17 1
  25   16   37 1
  26   16   38 1
  27   17   18 1
  28   17   39 1
  29   17   40 1
  30   18   19 1
  31   18   21 1
  32   19   20 1
  33   19   41 1
  34   19   42 1
  35   20   43 1
  36   20   44 1
  37   21   22 ar
  38   21   26 ar
  39   22   23 ar
  40   23   24 ar
  41   23   28 1
  42   24   25 ar
  43   24   45 1
  44   25   26 ar
  45   25   27 1
  46   27   46 1
  47   27   47 1
  48   27   48 1
  49   28   49 1
  50   28   50 1
  51   28   51 1
  52   29   30 1
  53   29   52 1
  54   29   53 1
  55   30   31 1
  56   30   32 1
  57   30   54 1
  58   31   32 1
  59   31   55 1
  60   31   56 1
  61   32   57 1
  62   32   58 1

#	End of record

