#	Name: ASD00990063
#	Creating user name:	WinNT
#	Creation time:	15. 06. 2019 18:54

#	Modifying user name:	WinNT
#	Modification time:	15. 06. 2019 18:54

#	Program:	/corina/corina34_cracker 3.40 0067  02.08.2006

@<TRIPOS>MOLECULE
ASD00990063
 104  108    0    0    0
SMALL
NO_CHARGES


@<TRIPOS>ATOM
   1 C1            -0.0170     1.4008     0.0097 C.ar    
   2 C2             0.0021    -0.0041     0.0020 C.ar    
   3 C3            -1.1927    -0.7111     0.0096 C.ar    
   4 C4            -2.3901    -0.0281     0.0247 C.ar    
   5 C5            -2.4084     1.3595     0.0324 C.ar    
   6 C6            -1.2427     2.0716     0.0301 C.ar    
   7 N7             1.2765     1.8139    -0.0004 N.2     
   8 C8             2.0658     0.7797    -0.0135 C.2     
   9 N9             1.3340    -0.3670    -0.0126 N.pl3   
  10 C10            3.5714     0.8430    -0.0275 C.3     
  11 N11            4.0725     0.8554     1.3491 N.am    
  12 C12            4.3762    -0.4059     2.0295 C.3     
  13 C13           -3.7275     2.0880     0.0484 C.3     
  14 C14           -4.6847     1.8418    -1.1196 C.3     
  15 C15           -4.9927     1.2538     0.2589 C.3     
  16 O16            4.7146     2.0388     3.2546 O.3     
  17 C17            4.8859     3.3370     3.8820 C.3     
  18 C18            3.5398     4.0628     3.9280 C.3     
  19 C19            5.4131     3.1496     5.3061 C.3     
  20 C20            5.8852     4.1665     3.0732 C.3     
  21 C21            4.2541     2.0273     1.9895 C.2     
  22 O22            4.0022     3.0735     1.4251 O.2     
  23 C23            1.8614    -1.7337    -0.0250 C.3     
  24 O24            2.0458    -2.1853     1.3181 O.3     
  25 C25            2.5597    -3.5149     1.4189 C.3     
  26 H26           -1.1841    -1.7910     0.0034 H       
  27 H27           -3.3204    -0.5768     0.0303 H       
  28 H28           -1.2684     3.1513     0.0364 H       
  29 H29            3.9668    -0.0280    -0.5502 H       
  30 H30            3.8922     1.7504    -0.5392 H       
  31 H31            5.4163    -0.6761     1.8467 H       
  32 H32            4.2142    -0.2889     3.1010 H       
  33 H33            3.7242    -1.1912     1.6470 H       
  34 H34           -3.7066     3.0888     0.4796 H       
  35 H35           -5.2938     2.6806    -1.4565 H       
  36 H36           -4.3603     1.1529    -1.8995 H       
  37 H37           -4.8710     0.1781     0.3859 H       
  38 H38           -5.8044     1.7058     0.8289 H       
  39 H39            2.8278     3.4719     4.5042 H       
  40 H40            3.6683     5.0374     4.3990 H       
  41 H41            3.1642     4.1963     2.9135 H       
  42 H42            6.3721     2.6326     5.2734 H       
  43 H43            5.5417     4.1242     5.7771 H       
  44 H44            4.7012     2.5587     5.8823 H       
  45 H45            5.5096     4.3000     2.0587 H       
  46 H46            6.0138     5.1410     3.5442 H       
  47 H47            6.8442     3.6494     3.0405 H       
  48 H48            1.1571    -2.3904    -0.5357 H       
  49 H49            2.8176    -1.7494    -0.5481 H       
  50 H50            2.6710    -3.7827     2.4696 H       
  51 H51            1.8699    -4.2085     0.9382 H       
  52 H52            3.5304    -3.5675     0.9258 H       
  53 C53           17.6163    15.7502    11.6016 C.ar    
  54 C54           17.6354    14.3453    11.5939 C.ar    
  55 C55           16.4406    13.6383    11.6015 C.ar    
  56 C56           15.2432    14.3212    11.6166 C.ar    
  57 C57           15.2249    15.7089    11.6242 C.ar    
  58 C58           16.3906    16.4210    11.6220 C.ar    
  59 N59           18.9098    16.1633    11.5915 N.2     
  60 C60           19.6991    15.1291    11.5784 C.2     
  61 N61           18.9673    13.9824    11.5792 N.pl3   
  62 C62           21.2047    15.1923    11.5644 C.3     
  63 N63           21.7058    15.2048    12.9409 N.am    
  64 C64           22.0095    13.9435    13.6214 C.3     
  65 C65           13.9451    13.5557    11.6244 C.3     
  66 C66           13.0030    13.7746    12.8098 C.3     
  67 C67           12.6532    14.3538    11.4375 C.3     
  68 C68           19.4947    12.6157    11.5668 C.3     
  69 O69           19.6796    12.1643    12.9100 O.3     
  70 C70           20.1936    10.8347    13.0108 C.3     
  71 O71           22.3479    16.3882    14.8465 O.3     
  72 C72           22.5192    17.6864    15.4739 C.3     
  73 C73           21.1731    18.4122    15.5198 C.3     
  74 C74           23.0464    17.4990    16.8979 C.3     
  75 C75           23.5185    18.5159    14.6651 C.3     
  76 C76           21.8874    16.3767    13.5814 C.2     
  77 O77           21.6355    17.4229    13.0170 O.2     
  78 H78           16.4492    12.5584    11.5953 H       
  79 H79           14.2796    16.2309    11.6357 H       
  80 H80           16.3649    17.5007    11.6283 H       
  81 H81           21.6001    14.3214    11.0417 H       
  82 H82           21.5255    16.0998    11.0527 H       
  83 H83           23.0496    13.6733    13.4386 H       
  84 H84           21.8475    14.0605    14.6929 H       
  85 H85           21.3575    13.1582    13.2389 H       
  86 H86           13.9864    12.5559    11.1923 H       
  87 H87           12.4241    12.9189    13.1574 H       
  88 H88           13.3220    14.4723    13.5841 H       
  89 H89           12.7421    15.4325    11.3090 H       
  90 H90           11.8442    13.8790    10.8823 H       
  91 H91           18.7902    11.9589    11.0566 H       
  92 H92           20.4507    12.5999    11.0434 H       
  93 H93           20.3053    10.5670    14.0615 H       
  94 H94           19.5036    10.1410    12.5305 H       
  95 H95           21.1641    10.7820    12.5173 H       
  96 H96           20.4611    17.8213    16.0960 H       
  97 H97           21.3017    19.3867    15.9908 H       
  98 H98           20.7975    18.5457    14.5053 H       
  99 H99           24.0054    16.9819    16.8652 H       
 100 H100          23.1750    18.4736    17.3689 H       
 101 H101          22.3345    16.9081    17.4741 H       
 102 H102          23.1429    18.6494    13.6506 H       
 103 H103          23.6471    19.4904    15.1361 H       
 104 H104          24.4775    17.9988    14.6324 H       
@<TRIPOS>BOND
   1    1    2 ar
   2    1    7 1
   3    1    6 ar
   4    2    3 ar
   5    2    9 1
   6    3    4 ar
   7    3   26 1
   8    4    5 ar
   9    4   27 1
  10    5    6 ar
  11    5   13 1
  12    6   28 1
  13    7    8 2
  14    8    9 1
  15    8   10 1
  16    9   23 1
  17   10   11 1
  18   10   29 1
  19   10   30 1
  20   11   12 1
  21   11   21 am
  22   12   31 1
  23   12   32 1
  24   12   33 1
  25   13   14 1
  26   13   15 1
  27   13   34 1
  28   14   15 1
  29   14   35 1
  30   14   36 1
  31   15   37 1
  32   15   38 1
  33   16   17 1
  34   16   21 1
  35   17   18 1
  36   17   19 1
  37   17   20 1
  38   18   39 1
  39   18   40 1
  40   18   41 1
  41   19   42 1
  42   19   43 1
  43   19   44 1
  44   20   45 1
  45   20   46 1
  46   20   47 1
  47   21   22 2
  48   23   24 1
  49   23   48 1
  50   23   49 1
  51   24   25 1
  52   25   50 1
  53   25   51 1
  54   25   52 1
  55   53   54 ar
  56   53   59 1
  57   53   58 ar
  58   54   55 ar
  59   54   61 1
  60   55   56 ar
  61   55   78 1
  62   56   57 ar
  63   56   65 1
  64   57   58 ar
  65   57   79 1
  66   58   80 1
  67   59   60 2
  68   60   61 1
  69   60   62 1
  70   61   68 1
  71   62   63 1
  72   62   81 1
  73   62   82 1
  74   63   64 1
  75   63   76 am
  76   64   83 1
  77   64   84 1
  78   64   85 1
  79   65   66 1
  80   65   67 1
  81   65   86 1
  82   66   67 1
  83   66   87 1
  84   66   88 1
  85   67   89 1
  86   67   90 1
  87   68   69 1
  88   68   91 1
  89   68   92 1
  90   69   70 1
  91   70   93 1
  92   70   94 1
  93   70   95 1
  94   71   72 1
  95   71   76 1
  96   72   73 1
  97   72   74 1
  98   72   75 1
  99   73   96 1
 100   73   97 1
 101   73   98 1
 102   74   99 1
 103   74  100 1
 104   74  101 1
 105   75  102 1
 106   75  103 1
 107   75  104 1
 108   76   77 2

#	End of record

