#	Name: ASD03330562
#	Creating user name:	WinNT
#	Creation time:	15. 06. 2019 20:37

#	Modifying user name:	WinNT
#	Modification time:	15. 06. 2019 20:37

#	Program:	/corina/corina34_cracker 3.40 0067  02.08.2006

@<TRIPOS>MOLECULE
ASD03330562
  67   69    0    0    0
SMALL
NO_CHARGES


@<TRIPOS>ATOM
   1 C1            -0.3224     1.1721     0.8692 C.2     
   2 N2            -0.3496    -0.1669     1.1049 N.pl3   
   3 C3             0.9826     1.5590     0.9081 C.2     
   4 N4             1.7316     0.4600     1.1474 N.2     
   5 C5             0.9408    -0.5814     1.2611 C.2     
   6 C6             1.3757    -1.9715     1.5168 C.ar    
   7 C7             1.4877     2.9306     0.7218 C.2     
   8 O8             0.7101     3.8416     0.5105 O.2     
   9 C9             3.3137     4.5394     0.6003 C.3     
  10 N10            2.8115     3.1757     0.7856 N.am    
  11 C11            3.4821     4.8223    -0.8938 C.3     
  12 C12            2.1115     4.8057    -1.5737 C.3     
  13 C13            4.1286     6.1961    -1.0831 C.3     
  14 C14            4.3745     3.7482    -1.5189 C.3     
  15 C15            4.6450     4.6827     1.2918 C.2     
  16 N16            5.1808     5.9057     1.4754 N.am    
  17 O17            5.2342     3.6975     1.6831 O.2     
  18 C18            6.5074     6.0406     2.0823 C.3     
  19 C19           -1.5587    -0.9909     1.1863 C.3     
  20 C20           -2.4715    -0.6620     0.0009 C.3     
  21 C21           -3.3819     0.5079     0.3601 C.3     
  22 N22           -2.7014     1.4517     1.2488 N.3     
  23 C23           -1.5221     2.0426     0.5988 C.3     
  24 C24           -3.6243     2.4956     1.7143 C.3     
  25 C25            2.6283    -2.4042     1.0793 C.ar    
  26 C26            3.0305    -3.7007     1.3199 C.ar    
  27 C27            2.1908    -4.5758     1.9962 C.ar    
  28 C28            0.9431    -4.1489     2.4327 C.ar    
  29 C29            0.5367    -2.8525     2.2013 C.ar    
  30 O30            2.5903    -5.8526     2.2310 O.3     
  31 C31            4.3829    -4.1689     0.8480 C.3     
  32 C32            1.6773    -6.6996     2.9319 C.3     
  33 H33            2.6045     5.2489     1.0268 H       
  34 H34            3.4317     2.4492     0.9541 H       
  35 H35            1.4757     5.5709    -1.1283 H       
  36 H36            2.2314     5.0073    -2.6381 H       
  37 H37            1.6509     3.8270    -1.4388 H       
  38 H38            5.0885     6.2200    -0.5673 H       
  39 H39            4.2826     6.3818    -2.1461 H       
  40 H40            3.4752     6.9650    -0.6709 H       
  41 H41            3.9139     2.7695    -1.3841 H       
  42 H42            4.4944     3.9498    -2.5834 H       
  43 H43            5.3509     3.7601    -1.0346 H       
  44 H44            4.6881     6.6965     1.2057 H       
  45 H45            7.2425     5.5206     1.4681 H       
  46 H46            6.7709     7.0962     2.1487 H       
  47 H47            6.4957     5.6055     3.0816 H       
  48 H48           -1.2839    -2.0452     1.1530 H       
  49 H49           -2.0819    -0.7791     2.1188 H       
  50 H50           -1.8623    -0.3953    -0.8627 H       
  51 H51           -3.0797    -1.5336    -0.2410 H       
  52 H52           -3.6765     1.0252    -0.5530 H       
  53 H53           -4.2737     0.1273     0.8580 H       
  54 H54           -1.3463     3.0406     1.0004 H       
  55 H55           -1.6918     2.1057    -0.4761 H       
  56 H56           -4.4487     2.0352     2.2587 H       
  57 H57           -3.0930     3.1830     2.3725 H       
  58 H58           -4.0158     3.0430     0.8569 H       
  59 H59            3.2816    -1.7243     0.5527 H       
  60 H60            0.2926    -4.8324     2.9580 H       
  61 H61           -0.4334    -2.5212     2.5413 H       
  62 H62            5.1226    -3.9877     1.6278 H       
  63 H63            4.3415    -5.2355     0.6273 H       
  64 H64            4.6628    -3.6222    -0.0525 H       
  65 H65            1.4664    -6.2735     3.9128 H       
  66 H66            0.7501    -6.7824     2.3648 H       
  67 H67            2.1189    -7.6887     3.0527 H       
@<TRIPOS>BOND
   1    1    2 1
   2    1    3 2
   3    1   23 1
   4    2   19 1
   5    2    5 1
   6    3    4 1
   7    3    7 1
   8    4    5 2
   9    5    6 1
  10    6   25 ar
  11    6   29 ar
  12    7    8 2
  13    7   10 am
  14    9   10 1
  15    9   11 1
  16    9   15 1
  17    9   33 1
  18   10   34 1
  19   11   12 1
  20   11   13 1
  21   11   14 1
  22   12   35 1
  23   12   36 1
  24   12   37 1
  25   13   38 1
  26   13   39 1
  27   13   40 1
  28   14   41 1
  29   14   42 1
  30   14   43 1
  31   15   16 am
  32   15   17 2
  33   16   18 1
  34   16   44 1
  35   18   45 1
  36   18   46 1
  37   18   47 1
  38   19   20 1
  39   19   48 1
  40   19   49 1
  41   20   21 1
  42   20   50 1
  43   20   51 1
  44   21   22 1
  45   21   52 1
  46   21   53 1
  47   22   23 1
  48   22   24 1
  49   23   54 1
  50   23   55 1
  51   24   56 1
  52   24   57 1
  53   24   58 1
  54   25   26 ar
  55   25   59 1
  56   26   27 ar
  57   26   31 1
  58   27   28 ar
  59   27   30 1
  60   28   29 ar
  61   28   60 1
  62   29   61 1
  63   30   32 1
  64   31   62 1
  65   31   63 1
  66   31   64 1
  67   32   65 1
  68   32   66 1
  69   32   67 1

#	End of record

