#	Name: ASD03092471
#	Creating user name:	WinNT
#	Creation time:	15. 06. 2019 20:32

#	Modifying user name:	WinNT
#	Modification time:	15. 06. 2019 20:32

#	Program:	/corina/corina34_cracker 3.40 0067  02.08.2006

@<TRIPOS>MOLECULE
ASD03092471
  52   54    0    0    0
SMALL
NO_CHARGES


@<TRIPOS>ATOM
   1 C1             0.3377     2.0153     0.1447 C.2     
   2 C2             0.5540     0.5260     0.2247 C.3     
   3 O3             1.2900     2.7643     0.0903 O.2     
   4 N4            -0.9141     2.5145     0.1280 N.am    
   5 F5             1.9261     0.2533     0.2215 F       
   6 F6            -0.0164     0.0346     1.4038 F       
   7 F7            -0.0469    -0.0923    -0.8770 F       
   8 C8            -1.1244     3.9622     0.0503 C.3     
   9 S9            -4.9835     4.7562    -0.6387 S.3     
  10 C10           -4.5799     4.6083     1.0157 C.2     
  11 N11           -3.3134     4.3515     1.1494 N.2     
  12 C12           -2.6026     4.2557     0.0469 C.2     
  13 C13           -3.3091     4.4424    -1.0876 C.2     
  14 C14           -2.5485     5.3138    -4.6606 C.ar    
  15 C15           -3.0708     5.4006    -3.3883 C.ar    
  16 C16           -2.7735     4.3920    -2.4620 C.ar    
  17 C17           -1.9532     3.3345    -2.8772 C.ar    
  18 C18           -1.4749     3.3281    -4.1696 C.ar    
  19 N19           -1.7794     4.2994    -5.0103 N.ar    
  20 C20           -0.5917     2.1969    -4.6294 C.3     
  21 C21           -2.8652     6.3883    -5.6688 C.3     
  22 N22           -5.4737     4.7431     2.0624 N.3     
  23 C23           -6.8269     5.0319     1.5657 C.3     
  24 C24           -7.7695     5.2321     2.7555 C.3     
  25 O25           -7.7344     4.0685     3.5861 O.3     
  26 C26           -6.4316     3.7583     4.0879 C.3     
  27 C27           -5.4755     3.5431     2.9116 C.3     
  28 C28           -6.4991     2.4835     4.9312 C.3     
  29 C29           -9.1951     5.4536     2.2462 C.3     
  30 H30           -1.6758     1.9152     0.1675 H       
  31 H31           -0.6604     4.4435     0.9112 H       
  32 H32           -0.6757     4.3458    -0.8660 H       
  33 H33           -3.6989     6.2336    -3.1092 H       
  34 H34           -1.6994     2.5369    -2.1947 H       
  35 H35           -1.2085     1.4000    -5.0448 H       
  36 H36            0.0956     2.5601    -5.3935 H       
  37 H37           -0.0232     1.8125    -3.7826 H       
  38 H38           -2.1141     7.1759    -5.6083 H       
  39 H39           -2.8615     5.9589    -6.6706 H       
  40 H40           -3.8488     6.8071    -5.4566 H       
  41 H41           -6.8069     5.9383     0.9607 H       
  42 H42           -7.1781     4.1967     0.9597 H       
  43 H43           -7.4491     6.1003     3.3315 H       
  44 H44           -6.0723     4.5835     4.7026 H       
  45 H45           -5.8051     2.6841     2.3272 H       
  46 H46           -4.4690     3.3627     3.2890 H       
  47 H47           -6.8566     1.6586     4.3149 H       
  48 H48           -5.5059     2.2476     5.3133 H       
  49 H49           -7.1829     2.6360     5.7663 H       
  50 H50           -9.5150     4.5840     1.6720 H       
  51 H51           -9.8656     5.5961     3.0937 H       
  52 H52           -9.2204     6.3384     1.6101 H       
@<TRIPOS>BOND
   1    1    2 1
   2    1    3 2
   3    1    4 am
   4    2    5 1
   5    2    6 1
   6    2    7 1
   7    4    8 1
   8    4   30 1
   9    8   12 1
  10    8   31 1
  11    8   32 1
  12    9   10 1
  13    9   13 1
  14   10   11 2
  15   10   22 1
  16   11   12 1
  17   12   13 2
  18   13   16 1
  19   14   15 ar
  20   14   19 ar
  21   14   21 1
  22   15   16 ar
  23   15   33 1
  24   16   17 ar
  25   17   18 ar
  26   17   34 1
  27   18   19 ar
  28   18   20 1
  29   20   35 1
  30   20   36 1
  31   20   37 1
  32   21   38 1
  33   21   39 1
  34   21   40 1
  35   22   23 1
  36   22   27 1
  37   23   24 1
  38   23   41 1
  39   23   42 1
  40   24   25 1
  41   24   29 1
  42   24   43 1
  43   25   26 1
  44   26   27 1
  45   26   28 1
  46   26   44 1
  47   27   45 1
  48   27   46 1
  49   28   47 1
  50   28   48 1
  51   28   49 1
  52   29   50 1
  53   29   51 1
  54   29   52 1

#	End of record

