#	Name: ASD00310276
#	Creating user name:	WinNT
#	Creation time:	15. 06. 2019 18:34

#	Modifying user name:	WinNT
#	Modification time:	15. 06. 2019 18:34

#	Program:	/corina/corina34_cracker 3.40 0067  02.08.2006

@<TRIPOS>MOLECULE
ASD00310276
  26   27    0    0    0
SMALL
NO_CHARGES


@<TRIPOS>ATOM
   1 C1            -0.0184     1.5028     0.0103 C.2     
   2 C2             0.0021    -0.0041     0.0020 C.3     
   3 N3             1.1395     2.1925     0.0030 N.am    
   4 C4             1.5271     3.6111     0.0069 C.3     
   5 C5             2.8237     3.2030    -0.7062 C.3     
   6 C6             2.5715     1.8576    -0.0059 C.3     
   7 C7             0.6283     4.4811    -0.8335 C.ar    
   8 C8             0.5822     5.8448    -0.6116 C.ar    
   9 C9            -0.2416     6.6432    -1.3825 C.ar    
  10 C10           -1.0201     6.0775    -2.3761 C.ar    
  11 C11           -0.9737     4.7129    -2.5978 C.ar    
  12 C12           -0.1456     3.9160    -1.8299 C.ar    
  13 Br13          -2.1480     7.1692    -3.4307 Br      
  14 O14           -1.0768     2.0948     0.0185 O.2     
  15 H15            1.0345    -0.3534    -0.0097 H       
  16 H16           -0.4983    -0.3791     0.8948 H       
  17 H17           -0.5153    -0.3696    -0.8850 H       
  18 H18            1.6898     4.0139     1.0066 H       
  19 H19            2.7439     3.1669    -1.7927 H       
  20 H20            3.7116     3.7281    -0.3543 H       
  21 H21            3.0096     1.7980     0.9904 H       
  22 H22            2.8113     0.9928    -0.6247 H       
  23 H23            1.1898     6.2864     0.1644 H       
  24 H24           -0.2778     7.7086    -1.2088 H       
  25 H25           -1.5816     4.2707    -3.3733 H       
  26 H26           -0.1062     2.8511    -2.0057 H       
@<TRIPOS>BOND
   1    1    2 1
   2    1    3 am
   3    1   14 2
   4    2   15 1
   5    2   16 1
   6    2   17 1
   7    3    4 1
   8    3    6 1
   9    4    5 1
  10    4    7 1
  11    4   18 1
  12    5    6 1
  13    5   19 1
  14    5   20 1
  15    6   21 1
  16    6   22 1
  17    7    8 ar
  18    7   12 ar
  19    8    9 ar
  20    8   23 1
  21    9   10 ar
  22    9   24 1
  23   10   11 ar
  24   10   13 1
  25   11   12 ar
  26   11   25 1
  27   12   26 1

#	End of record

