#	Name: ASD02508446
#	Creating user name:	WinNT
#	Creation time:	15. 06. 2019 20:24

#	Modifying user name:	WinNT
#	Modification time:	15. 06. 2019 20:24

#	Program:	/corina/corina34_cracker 3.40 0067  02.08.2006

@<TRIPOS>MOLECULE
ASD02508446
  42   45    0    0    0
SMALL
NO_CHARGES


@<TRIPOS>ATOM
   1 N1             1.4283     1.7365     0.2704 N.2     
   2 C2             2.2591     0.6877     0.1733 C.2     
   3 C3             1.5161    -0.4326     0.1031 C.2     
   4 N4             0.2024    -0.0421     0.1598 N.pl3   
   5 C5             0.1941     1.3130     0.2634 C.2     
   6 C6            -0.9168    -0.8799     0.1184 C.ar    
   7 C7            -1.9165    -0.7418     1.0750 C.ar    
   8 N8            -1.0171    -1.7928    -0.8336 N.ar    
   9 C9            -2.0556    -2.6027    -0.9096 C.ar    
  10 C10           -3.0832    -2.5255     0.0097 C.ar    
  11 C11           -3.0195    -1.5778     1.0218 C.ar    
  12 Cl12          -1.7836     0.4616     2.3192 Cl      
  13 S13            2.1159    -2.0836    -0.0353 S.o2    
  14 N14            2.1049    -2.4760    -1.6441 N.am    
  15 C15            2.8659    -1.7363    -2.5467 C.ar    
  16 C16            4.0933    -1.2327    -2.1727 C.ar    
  17 C17            4.8609    -0.4920    -3.0669 C.ar    
  18 C18            4.4232    -0.2445    -4.3320 C.ar    
  19 C19            3.1775    -0.7405    -4.7534 C.ar    
  20 C20            2.3895    -1.5005    -3.8546 C.ar    
  21 O21            3.4804    -2.0493     0.3601 O.2     
  22 O22            1.1470    -2.9160     0.5874 O.2     
  23 C23            2.7004    -0.5010    -6.0538 C.ar    
  24 C24            1.4895    -0.9965    -6.4289 C.ar    
  25 C25            0.7126    -1.7391    -5.5420 C.ar    
  26 C26            1.1460    -1.9958    -4.2770 C.ar    
  27 C27           -4.2643    -3.4563    -0.0885 C.3     
  28 F28           -4.0977    -4.3068    -1.1867 F       
  29 F29           -4.3563    -4.2179     1.0815 F       
  30 F30           -5.4353    -2.7083    -0.2513 F       
  31 H31            3.3380     0.7342     0.1544 H       
  32 H32           -0.6864     1.9349     0.3295 H       
  33 H33           -2.1029    -3.3356    -1.7015 H       
  34 H34           -3.8099    -1.4967     1.7533 H       
  35 H35            1.5686    -3.2208    -1.9580 H       
  36 H36            4.4634    -1.4145    -1.1745 H       
  37 H37            5.8195    -0.1070    -2.7517 H       
  38 H38            5.0328     0.3329    -5.0114 H       
  39 H39            3.2916     0.0735    -6.7515 H       
  40 H40            1.1253    -0.8111    -7.4286 H       
  41 H41           -0.2450    -2.1205    -5.8642 H       
  42 H42            0.5336    -2.5732    -3.6002 H       
@<TRIPOS>BOND
   1    1    2 1
   2    1    5 2
   3    2    3 2
   4    2   31 1
   5    3    4 1
   6    3   13 1
   7    4    5 1
   8    4    6 1
   9    5   32 1
  10    6    7 ar
  11    6    8 ar
  12    7   12 1
  13    7   11 ar
  14    8    9 ar
  15    9   10 ar
  16    9   33 1
  17   10   11 ar
  18   10   27 1
  19   11   34 1
  20   13   14 am
  21   13   21 2
  22   13   22 2
  23   14   15 1
  24   14   35 1
  25   15   16 ar
  26   15   20 ar
  27   16   17 ar
  28   16   36 1
  29   17   18 ar
  30   17   37 1
  31   18   19 ar
  32   18   38 1
  33   19   20 ar
  34   19   23 ar
  35   20   26 ar
  36   23   24 ar
  37   23   39 1
  38   24   25 ar
  39   24   40 1
  40   25   26 ar
  41   25   41 1
  42   26   42 1
  43   27   28 1
  44   27   29 1
  45   27   30 1

#	End of record

