#	Name: ASD01910660
#	Creating user name:	WinNT
#	Creation time:	15. 06. 2019 19:56

#	Modifying user name:	WinNT
#	Modification time:	15. 06. 2019 19:56

#	Program:	/corina/corina34_cracker 3.40 0067  02.08.2006

@<TRIPOS>MOLECULE
ASD01910660
  36   38    0    0    0
SMALL
NO_CHARGES


@<TRIPOS>ATOM
   1 C1            -0.0168     1.3843     0.0097 C.ar    
   2 C2             0.0021    -0.0041     0.0020 C.ar    
   3 C3            -1.1828    -0.7176     0.0090 C.ar    
   4 C4            -2.3922    -0.0549     0.0241 C.ar    
   5 C5            -2.4221     1.3428     0.0324 C.ar    
   6 C6            -1.2242     2.0611     0.0306 C.ar    
   7 C7            -3.6755     2.0351     0.0481 C.1     
   8 C8            -4.7031     2.6027     0.0610 C.1     
   9 C9            -5.9566     3.2950     0.0767 C.ar    
  10 C10           -5.9820     4.6947     0.0849 C.ar    
  11 C11           -7.1774     5.3513     0.0996 C.ar    
  12 C12           -8.3745     4.6257     0.1059 C.ar    
  13 C13           -8.3516     3.2308     0.0982 C.ar    
  14 C14           -7.1545     2.5714     0.0780 C.ar    
  15 C15           -7.2310     6.8562     0.1105 C.3     
  16 C16           -8.4453     7.3386    -0.6798 C.3     
  17 N17           -9.6622     6.6669    -0.2321 N.am    
  18 C18           -9.6529     5.3657     0.1196 C.2     
  19 O19          -10.6835     4.8082     0.4441 O.2     
  20 O20            1.1512     2.0792     0.0022 O.3     
  21 C21            2.3597     1.3168    -0.0134 C.3     
  22 H22            0.9458    -0.5290    -0.0098 H       
  23 H23           -1.1608    -1.7974     0.0023 H       
  24 H24           -3.3155    -0.6152     0.0292 H       
  25 H25           -1.2400     3.1410     0.0369 H       
  26 H26           -5.0575     5.2530     0.0799 H       
  27 H27           -9.2768     2.6738     0.1037 H       
  28 H28           -7.1330     1.4916     0.0715 H       
  29 H29           -7.3054     7.2085     1.1393 H       
  30 H30           -6.3229     7.2542    -0.3424 H       
  31 H31           -8.5583     8.4138    -0.5412 H       
  32 H32           -8.2897     7.1294    -1.7381 H       
  33 H33          -10.4926     7.1663    -0.1870 H       
  34 H34            2.4013     0.6836     0.8728 H       
  35 H35            2.3843     0.6932    -0.9070 H       
  36 H36            3.2153     1.9921    -0.0179 H       
@<TRIPOS>BOND
   1    1    2 ar
   2    1   20 1
   3    1    6 ar
   4    2    3 ar
   5    2   22 1
   6    3    4 ar
   7    3   23 1
   8    4    5 ar
   9    4   24 1
  10    5    6 ar
  11    5    7 1
  12    6   25 1
  13    7    8 3
  14    8    9 1
  15    9   10 ar
  16    9   14 ar
  17   10   11 ar
  18   10   26 1
  19   11   12 ar
  20   11   15 1
  21   12   13 ar
  22   12   18 1
  23   13   14 ar
  24   13   27 1
  25   14   28 1
  26   15   16 1
  27   15   29 1
  28   15   30 1
  29   16   17 1
  30   16   31 1
  31   16   32 1
  32   17   18 am
  33   17   33 1
  34   18   19 2
  35   20   21 1
  36   21   34 1
  37   21   35 1
  38   21   36 1

#	End of record

