#	Name: ASD01720031
#	Creating user name:	WinNT
#	Creation time:	15. 06. 2019 19:23

#	Modifying user name:	WinNT
#	Modification time:	15. 06. 2019 19:23

#	Program:	/corina/corina34_cracker 3.40 0067  02.08.2006

@<TRIPOS>MOLECULE
ASD01720031
  66   69    0    0    0
SMALL
NO_CHARGES


@<TRIPOS>ATOM
   1 C1            -0.0187     1.5261     0.0104 C.3     
   2 C2             0.0021    -0.0041     0.0020 C.3     
   3 C3             0.7612    -0.5061     1.2334 C.3     
   4 C4             2.1767     0.0777     1.2237 C.3     
   5 C5             2.0929     1.6055     1.1967 C.3     
   6 N6             1.3585     2.0357     0.0000 N.3     
   7 C7             1.3765     3.4143    -0.1242 C.ar    
   8 C8             2.5985     4.0849    -0.1532 C.ar    
   9 C9             2.6174     5.4475    -0.2765 C.ar    
  10 C10            1.3947     6.1294    -0.3703 C.ar    
  11 C11            0.2009     5.3925    -0.3346 C.ar    
  12 N12            0.2318     4.0758    -0.2193 N.ar    
  13 C13           -1.4326    -0.5346     0.0350 C.3     
  14 C14           -1.4163    -2.0357    -0.0970 C.2     
  15 O15           -0.3650    -2.6211    -0.2063 O.2     
  16 O16           -2.5697    -2.7223    -0.0932 O.3     
  17 O17           -0.9888     6.0330    -0.4238 O.3     
  18 C18           -2.1660     5.2240    -0.3810 C.3     
  19 C19           -3.4030     6.1171    -0.4944 C.3     
  20 C20           -4.6634     5.2509    -0.4487 C.3     
  21 C21            1.3646     7.5952    -0.5038 C.2     
  22 O22            0.2994     8.1768    -0.5844 O.2     
  23 N23            2.5174     8.2927    -0.5366 N.am    
  24 C24            2.4874     9.7514    -0.6693 C.3     
  25 C25            2.3138    10.3858     0.7121 C.3     
  26 C26            3.7996    10.2340    -1.2908 C.3     
  27 C27            3.7683    11.7573    -1.4295 C.3     
  28 C28            3.5946    12.3917    -0.0481 C.3     
  29 C29            2.2825    11.9091     0.5734 C.3     
  30 C30           -6.0141     5.9693    -0.4303 C.3     
  31 C31           -5.5552     5.2350    -1.6918 C.3     
  32 H32           -0.5461     1.8871    -0.8725 H       
  33 H33           -0.5291     1.8775     0.9071 H       
  34 H34            0.5002    -0.3563    -0.9012 H       
  35 H35            0.2416    -0.1869     2.1368 H       
  36 H36            0.8159    -1.5945     1.2088 H       
  37 H37            2.7082    -0.2418     2.1201 H       
  38 H38            2.7091    -0.2732     0.3397 H       
  39 H39            1.5725     1.9565     2.0879 H       
  40 H40            3.0991     2.0241     1.1754 H       
  41 H41            3.5237     3.5327    -0.0786 H       
  42 H42            3.5531     5.9864    -0.3007 H       
  43 H43           -1.9006    -0.2580     0.9798 H       
  44 H44           -1.9985    -0.1033    -0.7908 H       
  45 H45           -2.5087    -3.6835    -0.1805 H       
  46 H46           -2.1511     4.5168    -1.2104 H       
  47 H47           -2.1974     4.6777     0.5617 H       
  48 H48           -3.4179     6.8242     0.3349 H       
  49 H49           -3.3716     6.6633    -1.4372 H       
  50 H50           -4.5776     4.3258     0.1214 H       
  51 H51            3.3669     7.8289    -0.4723 H       
  52 H52            1.6541    10.0409    -1.3095 H       
  53 H53            1.3790    10.0419     1.1549 H       
  54 H54            3.1471    10.0962     1.3522 H       
  55 H55            4.6329     9.9444    -0.6507 H       
  56 H56            3.9233     9.7820    -2.2750 H       
  57 H57            4.7031    12.1012    -1.8722 H       
  58 H58            2.9350    12.0469    -2.0696 H       
  59 H59            4.4280    12.1022     0.5921 H       
  60 H60            3.5723    13.4770    -0.1468 H       
  61 H61            1.4491    12.1987    -0.0667 H       
  62 H62            2.1587    12.3611     1.5576 H       
  63 H63           -6.8170     5.5167     0.1515 H       
  64 H64           -6.0048     7.0591    -0.4509 H       
  65 H65           -5.2441     5.8417    -2.5422 H       
  66 H66           -6.0563     4.2993    -1.9398 H       
@<TRIPOS>BOND
   1    1    2 1
   2    1    6 1
   3    1   32 1
   4    1   33 1
   5    2    3 1
   6    2   13 1
   7    2   34 1
   8    3    4 1
   9    3   35 1
  10    3   36 1
  11    4    5 1
  12    4   37 1
  13    4   38 1
  14    5    6 1
  15    5   39 1
  16    5   40 1
  17    6    7 1
  18    7    8 ar
  19    7   12 ar
  20    8    9 ar
  21    8   41 1
  22    9   10 ar
  23    9   42 1
  24   10   11 ar
  25   10   21 1
  26   11   12 ar
  27   11   17 1
  28   13   14 1
  29   13   43 1
  30   13   44 1
  31   14   15 2
  32   14   16 1
  33   16   45 1
  34   17   18 1
  35   18   19 1
  36   18   46 1
  37   18   47 1
  38   19   20 1
  39   19   48 1
  40   19   49 1
  41   20   30 1
  42   20   31 1
  43   20   50 1
  44   21   22 2
  45   21   23 am
  46   23   24 1
  47   23   51 1
  48   24   26 1
  49   24   25 1
  50   24   52 1
  51   25   29 1
  52   25   53 1
  53   25   54 1
  54   26   27 1
  55   26   55 1
  56   26   56 1
  57   27   28 1
  58   27   57 1
  59   27   58 1
  60   28   29 1
  61   28   59 1
  62   28   60 1
  63   29   61 1
  64   29   62 1
  65   30   31 1
  66   30   63 1
  67   30   64 1
  68   31   65 1
  69   31   66 1

#	End of record

