#	Name: ASD05313031
#	Creating user name:	WinNT
#	Creation time:	15. 06. 2019 20:58

#	Modifying user name:	WinNT
#	Modification time:	15. 06. 2019 20:58

#	Program:	/corina/corina34_cracker 3.40 0067  02.08.2006

@<TRIPOS>MOLECULE
ASD05313031
  42   45    0    0    0
SMALL
NO_CHARGES


@<TRIPOS>ATOM
   1 C1            -0.0730     0.8181     1.0202 C.2     
   2 C2             0.1132    -0.6183     0.5937 C.3     
   3 N3             0.9363     1.7352     1.0464 N.pl3   
   4 N4             1.4569    -0.7171    -0.0072 N.am    
   5 C5             2.5717    -0.0375     0.6698 C.3     
   6 C6             2.3223     1.4755     0.6613 C.3     
   7 N7            -0.8988     2.6441     1.7014 N.2     
   8 N8            -1.1547     1.4124     1.4215 N.2     
   9 C9             0.3773     2.8942     1.4891 C.2     
  10 N10            2.5999     5.7641     1.7977 N.pl3   
  11 N11            2.3480     4.4230     1.4814 N.2     
  12 C12            1.0696     4.1855     1.6953 C.2     
  13 C13            0.4784     5.3800     2.1554 C.2     
  14 C14            1.4413     6.3253     2.2065 C.2     
  15 C15            3.8968     6.4395     1.7068 C.3     
  16 C16            1.6575    -1.4114    -1.1448 C.2     
  17 O17            2.7493    -1.4005    -1.6791 O.2     
  18 C18            0.5501    -2.1859    -1.7427 C.ar    
  19 C19            0.3183    -2.1308    -3.1196 C.ar    
  20 C20           -0.7187    -2.8575    -3.6710 C.ar    
  21 C21           -1.5264    -3.6374    -2.8633 C.ar    
  22 C22           -1.3020    -3.6955    -1.4990 C.ar    
  23 C23           -0.2658    -2.9803    -0.9355 C.ar    
  24 C24           -0.9710    -2.8002    -5.1556 C.3     
  25 F25           -2.0648    -3.6121    -5.4745 F       
  26 F26           -1.2445    -1.4807    -5.5315 F       
  27 F27            0.1619    -3.2545    -5.8391 F       
  28 Cl28           1.3307    -1.1514    -4.1342 Cl      
  29 H29            0.0439    -1.2758     1.4604 H       
  30 H30           -0.6442    -0.8894    -0.1418 H       
  31 H31            2.6410    -0.3891     1.6992 H       
  32 H32            3.5026    -0.2558     0.1466 H       
  33 H33            2.5021     1.8688    -0.3393 H       
  34 H34            2.9941     1.9595     1.3702 H       
  35 H35           -0.5600     5.5150     2.4199 H       
  36 H36            1.3084     7.3503     2.5197 H       
  37 H37            4.0108     6.8751     0.7142 H       
  38 H38            3.9493     7.2277     2.4578 H       
  39 H39            4.6951     5.7180     1.8809 H       
  40 H40           -2.3362    -4.2034    -3.2993 H       
  41 H41           -1.9372    -4.3060    -0.8744 H       
  42 H42           -0.0892    -3.0310     0.1287 H       
@<TRIPOS>BOND
   1    1    2 1
   2    1    3 1
   3    1    8 2
   4    2    4 1
   5    2   29 1
   6    2   30 1
   7    3    6 1
   8    3    9 1
   9    4    5 1
  10    4   16 am
  11    5    6 1
  12    5   31 1
  13    5   32 1
  14    6   33 1
  15    6   34 1
  16    7    8 1
  17    7    9 2
  18    9   12 1
  19   10   11 1
  20   10   14 1
  21   10   15 1
  22   11   12 2
  23   12   13 1
  24   13   14 2
  25   13   35 1
  26   14   36 1
  27   15   37 1
  28   15   38 1
  29   15   39 1
  30   16   17 2
  31   16   18 1
  32   18   19 ar
  33   18   23 ar
  34   19   20 ar
  35   19   28 1
  36   20   21 ar
  37   20   24 1
  38   21   22 ar
  39   21   40 1
  40   22   23 ar
  41   22   41 1
  42   23   42 1
  43   24   25 1
  44   24   26 1
  45   24   27 1

#	End of record

