#	Name: ASD01140142
#	Creating user name:	WinNT
#	Creation time:	15. 06. 2019 19:00

#	Modifying user name:	WinNT
#	Modification time:	15. 06. 2019 19:00

#	Program:	/corina/corina34_cracker 3.40 0067  02.08.2006

@<TRIPOS>MOLECULE
ASD01140142
  27   28    0    0    0
SMALL
NO_CHARGES


@<TRIPOS>ATOM
   1 C1            -1.0680    -1.4145     3.1794 C.ar    
   2 C2            -0.5340    -1.4715     1.9071 C.ar    
   3 C3             0.7378    -1.9954     1.7121 C.ar    
   4 C4             1.4681    -2.4603     2.7986 C.ar    
   5 C5             0.9281    -2.4003     4.0682 C.ar    
   6 C6            -0.3383    -1.8782     4.2587 C.ar    
   7 N7             1.2810    -2.0550     0.4261 N.pl3   
   8 C8             2.5182    -2.6522     0.2218 C.ar    
   9 C9             3.6556    -1.8687     0.0713 C.ar    
  10 C10            4.8837    -2.4644    -0.1311 C.ar    
  11 C11            4.9939    -3.8448    -0.1859 C.ar    
  12 C12            3.8777    -4.6389    -0.0393 C.ar    
  13 C13            2.6273    -4.0516     0.1722 C.ar    
  14 C14            1.4297    -4.8945     0.3302 C.2     
  15 O15            0.3314    -4.3806     0.4111 O.2     
  16 O16            1.5519    -6.2355     0.3852 O.3     
  17 H17           -2.0549    -1.0032     3.3323 H       
  18 H18           -1.1046    -1.1095     1.0646 H       
  19 H19            2.4570    -2.8685     2.6505 H       
  20 H20            1.4952    -2.7618     4.9132 H       
  21 H21           -0.7581    -1.8321     5.2527 H       
  22 H22            0.7940    -1.6794    -0.3239 H       
  23 H23            3.5784    -0.7922     0.1123 H       
  24 H24            5.7648    -1.8508    -0.2479 H       
  25 H25            5.9601    -4.3005    -0.3447 H       
  26 H26            3.9695    -5.7141    -0.0832 H       
  27 H27            0.7377    -6.7466     0.4896 H       
@<TRIPOS>BOND
   1    1    2 ar
   2    1    6 ar
   3    1   17 1
   4    2    3 ar
   5    2   18 1
   6    3    4 ar
   7    3    7 1
   8    4    5 ar
   9    4   19 1
  10    5    6 ar
  11    5   20 1
  12    6   21 1
  13    7    8 1
  14    7   22 1
  15    8    9 ar
  16    8   13 ar
  17    9   10 ar
  18    9   23 1
  19   10   11 ar
  20   10   24 1
  21   11   12 ar
  22   11   25 1
  23   12   13 ar
  24   12   26 1
  25   13   14 1
  26   14   15 2
  27   14   16 1
  28   16   27 1

#	End of record

