#	Name: ASD03740240
#	Creating user name:	WinNT
#	Creation time:	15. 06. 2019 20:46

#	Modifying user name:	WinNT
#	Modification time:	15. 06. 2019 20:46

#	Program:	/corina/corina34_cracker 3.40 0067  02.08.2006

@<TRIPOS>MOLECULE
ASD03740240
  64   68    0    0    0
SMALL
NO_CHARGES


@<TRIPOS>ATOM
   1 C1            -0.0178     1.4608     0.0101 C.3     
   2 N2             0.0021    -0.0041     0.0020 N.am    
   3 C3             0.6044    -0.6754     1.0035 C.2     
   4 O4             1.1318    -0.0647     1.9146 O.2     
   5 C5             0.6243    -2.1423     0.9955 C.2     
   6 C6            -0.3140    -2.9967     1.5507 C.2     
   7 O7             0.0595    -4.2685     1.3332 O.3     
   8 C8             1.2209    -4.3312     0.6483 C.ar    
   9 C9             1.9905    -5.3951     0.1967 C.ar    
  10 C10            3.1654    -5.1541    -0.4968 C.ar    
  11 N11            3.9362    -6.2282    -0.9491 N.am    
  12 C12            3.6251    -6.8643    -2.2316 C.3     
  13 C13            4.2944    -6.1019    -3.3459 C.ar    
  14 C14            5.5734    -6.4484    -3.7467 C.ar    
  15 C15            6.1924    -5.7559    -4.7660 C.ar    
  16 C16            5.5281    -4.7034    -5.3949 C.ar    
  17 O17            7.5398    -4.2651    -6.9671 O.3     
  18 O18            5.5484    -2.8396    -7.1938 O.3     
  19 C19            4.2377    -4.3571    -4.9873 C.ar    
  20 C20            3.6263    -5.0633    -3.9672 C.ar    
  21 S21            5.2015    -6.7820    -0.0355 S.o2    
  22 C22            4.4676    -8.0525     1.0313 C.3     
  23 O23            6.0836    -7.3728    -0.9800 O.2     
  24 O24            5.5990    -5.6546     0.7327 O.2     
  25 C25            3.5839    -3.8494    -0.7470 C.ar    
  26 C26            2.8300    -2.7849    -0.3041 C.ar    
  27 C27            1.6449    -3.0187     0.3884 C.ar    
  28 C28            4.8638    -3.6018    -1.5030 C.3     
  29 C29            4.7697    -2.8189    -2.8141 C.3     
  30 C30            5.3760    -2.1618    -1.5725 C.3     
  31 C31           -1.5316    -2.5762     2.2680 C.ar    
  32 C32           -2.4069    -3.5347     2.7863 C.ar    
  33 C33           -3.5434    -3.1353     3.4563 C.ar    
  34 C34           -3.8192    -1.7860     3.6161 C.ar    
  35 C35           -2.9548    -0.8305     3.1042 C.ar    
  36 C36           -1.8122    -1.2174     2.4373 C.ar    
  37 B37            6.2277    -3.9108    -6.5556 Du      
  38 F38            3.5870    -3.3385    -5.5908 F       
  39 F39           -4.9351    -1.4007     4.2730 F       
  40 H40            1.0048     1.8381     0.0023 H       
  41 H41           -0.5450     1.8219    -0.8730 H       
  42 H42           -0.5280     1.8123     0.9069 H       
  43 H43           -0.4183    -0.4908    -0.7241 H       
  44 H44            1.6735    -6.4100     0.3863 H       
  45 H45            3.9885    -7.8920    -2.2250 H       
  46 H46            2.5462    -6.8614    -2.3863 H       
  47 H47            6.0881    -7.2634    -3.2595 H       
  48 H48            7.1904    -6.0281    -5.0765 H       
  49 H49            7.8865    -3.7210    -7.6874 H       
  50 H50            6.0588    -2.4126    -7.8955 H       
  51 H51            2.6269    -4.8006    -3.6531 H       
  52 H52            3.9085    -8.7612     0.4204 H       
  53 H53            5.2580    -8.5785     1.5665 H       
  54 H54            3.7951    -7.5810     1.7479 H       
  55 H55            3.1545    -1.7731    -0.4973 H       
  56 H56            5.6059    -4.3980    -1.4444 H       
  57 H57            5.4502    -3.0998    -3.6179 H       
  58 H58            3.7821    -2.4829    -3.1299 H       
  59 H59            4.7872    -1.3934    -1.0715 H       
  60 H60            6.4553    -2.0103    -1.5595 H       
  61 H61           -2.1934    -4.5860     2.6618 H       
  62 H62           -4.2205    -3.8750     3.8573 H       
  63 H63           -3.1750     0.2191     3.2318 H       
  64 H64           -1.1373    -0.4723     2.0429 H       
@<TRIPOS>BOND
   1    1    2 1
   2    1   40 1
   3    1   41 1
   4    1   42 1
   5    2    3 am
   6    2   43 1
   7    3    4 2
   8    3    5 1
   9    5    6 2
  10    5   27 1
  11    6    7 1
  12    6   31 1
  13    7    8 1
  14    8    9 ar
  15    8   27 ar
  16    9   10 ar
  17    9   44 1
  18   10   11 1
  19   10   25 ar
  20   11   12 1
  21   11   21 am
  22   12   13 1
  23   12   45 1
  24   12   46 1
  25   13   14 ar
  26   13   20 ar
  27   14   15 ar
  28   14   47 1
  29   15   16 ar
  30   15   48 1
  31   16   19 ar
  32   16   37 1
  33   17   37 1
  34   17   49 1
  35   18   37 1
  36   18   50 1
  37   19   20 ar
  38   19   38 1
  39   20   51 1
  40   21   22 1
  41   21   23 2
  42   21   24 2
  43   22   52 1
  44   22   53 1
  45   22   54 1
  46   25   26 ar
  47   25   28 1
  48   26   27 ar
  49   26   55 1
  50   28   29 1
  51   28   30 1
  52   28   56 1
  53   29   30 1
  54   29   57 1
  55   29   58 1
  56   30   59 1
  57   30   60 1
  58   31   32 ar
  59   31   36 ar
  60   32   33 ar
  61   32   61 1
  62   33   34 ar
  63   33   62 1
  64   34   35 ar
  65   34   39 1
  66   35   36 ar
  67   35   63 1
  68   36   64 1

#	End of record

