#	Name: ASD01813725
#	Creating user name:	WinNT
#	Creation time:	15. 06. 2019 19:31

#	Modifying user name:	WinNT
#	Modification time:	15. 06. 2019 19:31

#	Program:	/corina/corina34_cracker 3.40 0067  02.08.2006

@<TRIPOS>MOLECULE
ASD01813725
  50   53    0    0    0
SMALL
NO_CHARGES


@<TRIPOS>ATOM
   1 C1            -0.0168     1.3835    -0.0515 C.ar    
   2 C2             0.0020    -0.0038    -0.0585 C.ar    
   3 C3             1.1977    -0.6920    -0.0534 C.ar    
   4 C4             2.4035     0.0084    -0.0412 C.ar    
   5 C5             2.3796     1.4130    -0.0341 C.ar    
   6 C6             1.1627     2.0947    -0.0393 C.ar    
   7 N7             3.6056    -0.6668    -0.0350 N.pl3   
   8 C8             4.7891    -0.0410    -0.0219 C.2     
   9 C9             4.8932     1.3356    -0.0135 C.2     
  10 C10            3.6619     2.1417    -0.0212 C.2     
  11 O11            3.7002     3.3596    -0.0146 O.2     
  12 C12            6.2115     1.9851     0.0019 C.2     
  13 O13            6.3001     3.3302     0.0099 O.3     
  14 O14            7.2220     1.3094     0.0073 O.2     
  15 C15            3.5871    -2.1316    -0.0427 C.3     
  16 C16            3.4445    -2.6248    -1.4595 C.ar    
  17 N17            2.2469    -2.7325    -2.0024 N.ar    
  18 N18            2.0733    -3.1472    -3.2045 N.ar    
  19 C19            3.0908    -3.4960    -3.9829 C.ar    
  20 C20            4.3966    -3.4141    -3.4911 C.ar    
  21 C21            4.5734    -2.9596    -2.1936 C.ar    
  22 F22            1.2003    -2.0429    -0.0599 F       
  23 C23            2.8433    -3.9701    -5.3656 C.ar    
  24 C24            1.5393    -4.0511    -5.8531 C.ar    
  25 C25            1.3115    -4.4916    -7.1389 C.ar    
  26 C26            2.3808    -4.8556    -7.9499 C.ar    
  27 C27            3.6819    -4.7756    -7.4658 C.ar    
  28 C28            3.9146    -4.3301    -6.1825 C.ar    
  29 N29            2.1479    -5.3020    -9.2505 N.pl3   
  30 C30            0.7776    -5.3872    -9.7614 C.3     
  31 C31            3.2737    -5.6858   -10.1058 C.3     
  32 H32           -0.9607     1.9082    -0.0601 H       
  33 H33           -0.9292    -0.5507    -0.0676 H       
  34 H34            1.1454     3.1746    -0.0342 H       
  35 H35            5.6925    -0.6328    -0.0173 H       
  36 H36            7.1887     3.7116     0.0200 H       
  37 H37            4.5175    -2.5090     0.3815 H       
  38 H38            2.7459    -2.4875     0.5522 H       
  39 H39            5.2412    -3.6921    -4.1041 H       
  40 H40            5.5607    -2.8764    -1.7637 H       
  41 H41            0.7084    -3.7691    -5.2233 H       
  42 H42            0.3018    -4.5545    -7.5169 H       
  43 H43            4.5109    -5.0588    -8.0973 H       
  44 H44            4.9253    -4.2682    -5.8070 H       
  45 H45            0.5058    -4.4422   -10.2319 H       
  46 H46            0.7127    -6.1904   -10.4954 H       
  47 H47            0.0946    -5.5922    -8.9371 H       
  48 H48            3.4848    -6.7470    -9.9742 H       
  49 H49            3.0206    -5.4923   -11.1482 H       
  50 H50            4.1534    -5.1036    -9.8315 H       
@<TRIPOS>BOND
   1    1    2 ar
   2    1    6 ar
   3    1   32 1
   4    2    3 ar
   5    2   33 1
   6    3   22 1
   7    3    4 ar
   8    4    5 ar
   9    4    7 1
  10    5    6 ar
  11    5   10 1
  12    6   34 1
  13    7    8 1
  14    7   15 1
  15    8    9 2
  16    8   35 1
  17    9   10 1
  18    9   12 1
  19   10   11 2
  20   12   13 1
  21   12   14 2
  22   13   36 1
  23   15   16 1
  24   15   37 1
  25   15   38 1
  26   16   17 ar
  27   16   21 ar
  28   17   18 ar
  29   18   19 ar
  30   19   20 ar
  31   19   23 1
  32   20   21 ar
  33   20   39 1
  34   21   40 1
  35   23   24 ar
  36   23   28 ar
  37   24   25 ar
  38   24   41 1
  39   25   26 ar
  40   25   42 1
  41   26   27 ar
  42   26   29 1
  43   27   28 ar
  44   27   43 1
  45   28   44 1
  46   29   30 1
  47   29   31 1
  48   30   45 1
  49   30   46 1
  50   30   47 1
  51   31   48 1
  52   31   49 1
  53   31   50 1

#	End of record

