#	Name: ASD01918504
#	Creating user name:	WinNT
#	Creation time:	15. 06. 2019 20:11

#	Modifying user name:	WinNT
#	Modification time:	15. 06. 2019 20:11

#	Program:	/corina/corina34_cracker 3.40 0067  02.08.2006

@<TRIPOS>MOLECULE
ASD01918504
  38   41    0    0    0
SMALL
NO_CHARGES


@<TRIPOS>ATOM
   1 C1            -0.0144     1.2113     0.0087 C.2     
   2 O2             0.0095    -0.0037    -0.0147 O.2     
   3 C3             1.1325     3.3787    -0.1038 C.3     
   4 C4             2.1982     3.7626    -1.1023 C.2     
   5 C5             3.1212     2.9032    -1.5845 C.2     
   6 C6             3.2198     1.4481    -1.2049 C.3     
   7 C7             2.4368     1.2214     0.0945 C.3     
   8 N8             1.1391     1.9083    -0.0001 N.am    
   9 O9             3.8975     3.5886    -2.4368 O.3     
  10 C10            3.4429     4.8558    -2.4718 C.2     
  11 N11            2.4127     4.9547    -1.6610 N.2     
  12 C12            4.0080     5.9526    -3.2859 C.ar    
  13 C13            3.4360     7.2239    -3.2261 C.ar    
  14 C14            3.9753     8.2407    -3.9934 C.ar    
  15 C15            5.0718     7.9541    -4.7982 C.ar    
  16 C16            5.5892     6.6684    -4.8087 C.ar    
  17 N17            5.0592     5.7208    -4.0638 N.ar    
  18 F18            5.6275     8.9193    -5.5630 F       
  19 C19           -1.3090     1.9248     0.0408 C.ar    
  20 C20           -2.4096     1.4105    -0.6466 C.ar    
  21 C21           -3.6162     2.0808    -0.6134 C.ar    
  22 C22           -3.7363     3.2615     0.0996 C.ar    
  23 C23           -2.6479     3.7776     0.7836 C.ar    
  24 C24           -1.4368     3.1118     0.7629 C.ar    
  25 F25           -2.7718     4.9307     1.4765 F       
  26 Cl26          -4.9856     1.4419    -1.4680 Cl      
  27 H27            1.3576     3.8200     0.8671 H       
  28 H28            0.1579     3.7217    -0.4512 H       
  29 H29            2.7953     0.8339    -1.9991 H       
  30 H30            4.2654     1.1803    -1.0528 H       
  31 H31            2.2737     0.1536     0.2402 H       
  32 H32            3.0022     1.6229     0.9354 H       
  33 H33            2.5837     7.4114    -2.5898 H       
  34 H34            3.5536     9.2346    -3.9681 H       
  35 H35            6.4408     6.4418    -5.4329 H       
  36 H36           -2.3174     0.4899    -1.2038 H       
  37 H37           -4.6821     3.7824     0.1222 H       
  38 H38           -0.5899     3.5119     1.3007 H       
@<TRIPOS>BOND
   1    1    2 2
   2    1    8 am
   3    1   19 1
   4    3    4 1
   5    3    8 1
   6    3   27 1
   7    3   28 1
   8    4    5 2
   9    4   11 1
  10    5    6 1
  11    5    9 1
  12    6    7 1
  13    6   29 1
  14    6   30 1
  15    7    8 1
  16    7   31 1
  17    7   32 1
  18    9   10 1
  19   10   11 2
  20   10   12 1
  21   12   13 ar
  22   12   17 ar
  23   13   14 ar
  24   13   33 1
  25   14   15 ar
  26   14   34 1
  27   15   16 ar
  28   15   18 1
  29   16   17 ar
  30   16   35 1
  31   19   20 ar
  32   19   24 ar
  33   20   21 ar
  34   20   36 1
  35   21   22 ar
  36   21   26 1
  37   22   23 ar
  38   22   37 1
  39   23   24 ar
  40   23   25 1
  41   24   38 1

#	End of record

