#	Name: ASD00731055
#	Creating user name:	WinNT
#	Creation time:	15. 06. 2019 18:37

#	Modifying user name:	WinNT
#	Modification time:	15. 06. 2019 18:37

#	Program:	/corina/corina34_cracker 3.40 0067  02.08.2006

@<TRIPOS>MOLECULE
ASD00731055
 222  222    0    0    0
SMALL
NO_CHARGES


@<TRIPOS>ATOM
   1 C1            -2.2519     4.9486    -7.5121 C.2     
   2 O2            -1.9455     3.7789    -7.6056 O.2     
   3 N3             0.1077     5.4020    -7.8527 N.am    
   4 C4            -1.2161     6.0193    -7.7395 C.3     
   5 C5            -1.5385     6.7748    -9.0303 C.3     
   6 C6            -0.4961     7.8724    -9.2528 C.3     
   7 O7            -1.5158     5.8658   -10.1327 O.3     
   8 C8            -5.8919     4.8453    -7.4641 C.2     
   9 O9            -6.0192     6.0473    -7.5643 O.2     
  10 N10           -3.5200     5.2910    -7.2102 N.am    
  11 C11           -4.5523     4.2570    -7.1032 C.3     
  12 C12           -4.5974     3.7279    -5.6684 C.3     
  13 C13           -5.6174     2.5912    -5.5758 C.3     
  14 C14           -5.1238     1.3952    -6.3924 C.3     
  15 C15           -5.0054     4.8577    -4.7208 C.3     
  16 C16           -9.3367     3.6246    -7.5447 C.2     
  17 O17           -9.0252     2.5483    -7.0806 O.2     
  18 N18           -6.9486     4.0359    -7.6753 N.am    
  19 C19           -8.2691     4.6103    -7.9445 C.3     
  20 C20           -8.3953     4.9213    -9.4373 C.3     
  21 C21           -7.3936     6.0136    -9.8171 C.3     
  22 C22           -7.5179     6.3199   -11.2874 C.2     
  23 O23           -8.3279     5.7232   -11.9648 O.2     
  24 N24           -6.7289     7.2569   -11.8496 N.am    
  25 C25          -12.9296     3.2506    -8.1052 C.2     
  26 O26          -12.9541     4.1541    -8.9139 O.2     
  27 N27          -10.6376     3.9392    -7.7029 N.am    
  28 C28          -11.6755     2.9811    -7.3143 C.3     
  29 C29          -11.9727     3.1290    -5.8208 C.3     
  30 C30          -10.7533     2.7406    -5.0250 C.ar    
  31 C31           -9.8102     3.6968    -4.6964 C.ar    
  32 C32           -8.6913     3.3432    -3.9674 C.ar    
  33 C33           -8.5146     2.0275    -3.5646 C.ar    
  34 O34           -7.4150     1.6772    -2.8470 O.3     
  35 C35           -9.4626     1.0700    -3.8952 C.ar    
  36 C36          -10.5823     1.4297    -4.6199 C.ar    
  37 C37          -16.4383     2.2422    -7.9177 C.2     
  38 O38          -16.2866     1.7136    -6.8367 O.2     
  39 N39          -14.0240     2.4876    -7.9139 N.am    
  40 C40          -15.2432     2.7497    -8.6827 C.3     
  41 C41          -15.1593     2.0329   -10.0318 C.3     
  42 C42          -14.0217     2.6348   -10.8592 C.3     
  43 C43          -13.9378     1.9180   -12.2084 C.3     
  44 N44          -12.8486     2.4943   -13.0006 N.pl3   
  45 C45          -12.5813     2.0075   -14.2583 C.2     
  46 N46          -13.2969     1.0332   -14.7457 N.2     
  47 N47          -11.5591     2.5484   -15.0018 N.pl3   
  48 C48          -19.9568     1.5766    -8.6529 C.2     
  49 O49          -19.7994     1.7534    -9.8424 O.2     
  50 N50          -17.6757     2.3756    -8.4348 N.am    
  51 C51          -18.8375     1.8823    -7.6912 C.3     
  52 C52          -19.2972     2.9500    -6.6964 C.3     
  53 C53          -18.2076     3.1705    -5.6452 C.3     
  54 C54          -18.6673     4.2382    -4.6504 C.3     
  55 C55          -17.5777     4.4588    -3.5992 C.3     
  56 N56          -18.0191     5.4839    -2.6441 N.3     
  57 C57          -23.5411     0.9025    -8.4060 C.2     
  58 O58          -23.5705     1.1888    -7.2278 O.2     
  59 N59          -21.1325     1.1067    -8.1912 N.am    
  60 C60          -22.2206     0.8096    -9.1261 C.3     
  61 C61          -22.0421    -0.6040    -9.6836 C.3     
  62 C62          -26.9922    -0.0984    -9.0779 C.2     
  63 O63          -26.7256    -0.5974   -10.1507 O.2     
  64 N64          -24.6895     0.6675    -9.0712 N.am    
  65 C65          -25.9732     0.7579    -8.3712 C.3     
  66 C66          -26.4478     2.2124    -8.3619 C.3     
  67 C67          -25.4296     3.0763    -7.6149 C.3     
  68 C68          -26.5837     2.7137    -9.8010 C.3     
  69 C69          -30.5498    -0.8701    -8.7456 C.2     
  70 O70          -30.7442     0.0776    -8.0142 O.2     
  71 N71          -28.1997    -0.3098    -8.5178 N.am    
  72 C72          -29.1437    -1.2403    -9.1417 C.3     
  73 C73          -28.8403    -2.6650    -8.6735 C.3     
  74 C74          -27.4605    -3.0862    -9.1829 C.3     
  75 C75          -27.1570    -4.5109    -8.7148 C.3     
  76 C76          -25.7772    -4.9321    -9.2242 C.3     
  77 N77          -25.4858    -6.2999    -8.7748 N.3     
  78 C78          -33.8426    -2.4493    -8.9100 C.2     
  79 O79          -33.3787    -3.5084    -9.2605 O.2     
  80 N80          -31.5913    -1.5923    -9.2041 N.am    
  81 C81          -32.9583    -1.2324    -8.8190 C.3     
  82 C82          -33.4847    -0.1478    -9.7610 C.3     
  83 O83          -35.1457    -2.3565    -8.6016 O.3     
  84 C84            1.2118     6.1164    -7.5578 C.2     
  85 O85            1.1095     7.2704    -7.1987 O.2     
  86 C86           19.7610     8.1012    -5.7757 C.3     
  87 C87           18.3785     8.7459    -5.6575 C.3     
  88 C88           17.3057     7.7269    -6.0469 C.3     
  89 C89           15.9232     8.3716    -5.9288 C.3     
  90 C90           14.8503     7.3527    -6.3181 C.3     
  91 C91           13.4678     7.9974    -6.2000 C.3     
  92 C92           12.3950     6.9784    -6.5894 C.3     
  93 C93           11.0125     7.6231    -6.4712 C.3     
  94 C94            9.9396     6.6042    -6.8606 C.3     
  95 C95            8.5571     7.2489    -6.7424 C.3     
  96 C96            7.4842     6.2299    -7.1318 C.3     
  97 C97            6.1017     6.8746    -7.0136 C.3     
  98 C98            5.0289     5.8557    -7.4030 C.3     
  99 C99            3.6464     6.5004    -7.2848 C.3     
 100 C100           2.5735     5.4814    -7.6742 C.3     
 101 H101           0.1895     4.4791    -8.1399 H       
 102 H102          -1.2221     6.7148    -6.9003 H       
 103 H103          -2.5282     7.2245    -8.9506 H       
 104 H104           0.4776     7.4173    -9.4341 H       
 105 H105          -0.7815     8.4752   -10.1150 H       
 106 H106          -0.4417     8.5066    -8.3680 H       
 107 H107          -2.1530     5.1421   -10.0589 H       
 108 H108          -3.7492     6.2221    -7.0637 H       
 109 H109          -4.3192     3.4390    -7.7849 H       
 110 H110          -3.6122     3.3558    -5.3872 H       
 111 H111          -5.7376     2.2949    -4.5337 H       
 112 H112          -6.5755     2.9298    -5.9701 H       
 113 H113          -4.1215     1.1199    -6.0640 H       
 114 H114          -5.7986     0.5519    -6.2458 H       
 115 H115          -5.0996     1.6619    -7.4490 H       
 116 H116          -6.0261     5.1683    -4.9439 H       
 117 H117          -4.9497     4.5058    -3.6906 H       
 118 H118          -4.3310     5.7038    -4.8526 H       
 119 H119          -6.8348     3.0729    -7.6491 H       
 120 H120          -8.3895     5.5291    -7.3705 H       
 121 H121          -8.1871     4.0206   -10.0149 H       
 122 H122          -9.4070     5.2652    -9.6525 H       
 123 H123          -7.6018     6.9142    -9.2395 H       
 124 H124          -6.3819     5.6697    -9.6019 H       
 125 H125          -6.0811     7.7341   -11.3079 H       
 126 H126          -6.8089     7.4540   -12.7960 H       
 127 H127         -10.8868     4.8001    -8.0741 H       
 128 H128         -11.3288     1.9678    -7.5171 H       
 129 H129         -12.2338     4.1647    -5.6031 H       
 130 H130         -12.8053     2.4798    -5.5499 H       
 131 H131          -9.9482     4.7210    -5.0102 H       
 132 H132          -7.9546     4.0903    -3.7116 H       
 133 H133          -7.5315     1.7469    -1.8896 H       
 134 H134          -9.3271     0.0450    -3.5831 H       
 135 H135         -11.3227     0.6856    -4.8738 H       
 136 H136         -14.0044     1.7650    -7.2671 H       
 137 H137         -15.3457     3.8223    -8.8469 H       
 138 H138         -14.9680     0.9723    -9.8685 H       
 139 H139         -16.1012     2.1540   -10.5668 H       
 140 H140         -14.2130     3.6953   -11.0226 H       
 141 H141         -13.0798     2.5136   -10.3243 H       
 142 H142         -13.7465     0.8574   -12.0450 H       
 143 H143         -14.8798     2.0391   -12.7433 H       
 144 H144         -12.3161     3.2194   -12.6379 H       
 145 H145         -13.1082     0.6898   -15.6330 H       
 146 H146         -11.0266     3.2734   -14.6390 H       
 147 H147         -11.3705     2.2049   -15.8891 H       
 148 H148         -17.7971     2.7983    -9.2994 H       
 149 H149         -18.5649     0.9757    -7.1509 H       
 150 H150         -19.4850     3.8837    -7.2265 H       
 151 H151         -20.2132     2.6198    -6.2065 H       
 152 H152         -18.0199     2.2368    -5.1151 H       
 153 H153         -17.2916     3.5007    -6.1351 H       
 154 H154         -18.8551     5.1720    -5.1805 H       
 155 H155         -19.5833     3.9080    -4.1605 H       
 156 H156         -17.3900     3.5251    -3.0691 H       
 157 H157         -16.6617     4.7890    -4.0891 H       
 158 H158         -17.3162     5.6479    -1.9391 H       
 159 H159         -18.2614     6.3404    -3.1192 H       
 160 H160         -21.2584     0.9653    -7.2398 H       
 161 H161         -22.2021     1.5283    -9.9454 H       
 162 H162         -22.0606    -1.3227    -8.8644 H       
 163 H163         -22.8516    -0.8251   -10.3793 H       
 164 H164         -21.0870    -0.6712   -10.2045 H       
 165 H165         -24.6660     0.4385   -10.0135 H       
 166 H166         -25.8533     0.4083    -7.3457 H       
 167 H167         -27.4144     2.2760    -7.8621 H       
 168 H168         -24.4900     3.0900    -8.1673 H       
 169 H169         -25.8126     4.0927    -7.5241 H       
 170 H170         -25.2608     2.6615    -6.6211 H       
 171 H171         -27.3090     2.0983   -10.3331 H       
 172 H172         -26.9218     3.7499    -9.7944 H       
 173 H173         -25.6171     2.6501   -10.3007 H       
 174 H174         -28.4436     0.1541    -7.7017 H       
 175 H175         -29.0453    -1.1854   -10.2258 H       
 176 H176         -28.8516    -2.6996    -7.5842 H       
 177 H177         -29.5959    -3.3452    -9.0665 H       
 178 H178         -27.4492    -3.0515   -10.2723 H       
 179 H179         -26.7049    -2.4059    -8.7899 H       
 180 H180         -27.1683    -4.5455    -7.6254 H       
 181 H181         -27.9126    -5.1911    -9.1078 H       
 182 H182         -25.7659    -4.8974   -10.3136 H       
 183 H183         -25.0216    -4.2518    -8.8312 H       
 184 H184         -24.5791    -6.6016    -9.0987 H       
 185 H185         -25.5538    -6.3728    -7.7707 H       
 186 H186         -31.4359    -2.3503    -9.7890 H       
 187 H187         -32.9606    -0.8573    -7.7956 H       
 188 H188         -34.5017     0.1199    -9.4745 H       
 189 H189         -32.8451     0.7323    -9.6952 H       
 190 H190         -33.4824    -0.5230   -10.7844 H       
 191 H191         -35.6728    -3.1639    -8.6751 H       
 192 H192          20.5253     8.8271    -5.4983 H       
 193 H193          19.8186     7.2404    -5.1096 H       
 194 H194          19.9240     7.7768    -6.8035 H       
 195 H195          18.2156     9.0703    -4.6298 H       
 196 H196          18.3209     9.6067    -6.3237 H       
 197 H197          17.4686     7.4025    -7.0747 H       
 198 H198          17.3633     6.8661    -5.3808 H       
 199 H199          15.7602     8.6960    -4.9010 H       
 200 H200          15.8655     9.2324    -6.5949 H       
 201 H201          15.0133     7.0283    -7.3459 H       
 202 H202          14.9079     6.4919    -5.6520 H       
 203 H203          13.3048     8.3218    -5.1722 H       
 204 H204          13.4102     8.8582    -6.8661 H       
 205 H205          12.5579     6.6540    -7.6171 H       
 206 H206          12.4526     6.1176    -5.9232 H       
 207 H207          10.8495     7.9475    -5.4434 H       
 208 H208          10.9548     8.4839    -7.1373 H       
 209 H209          10.1026     6.2798    -7.8883 H       
 210 H210           9.9972     5.7434    -6.1944 H       
 211 H211           8.3941     7.5733    -5.7146 H       
 212 H212           8.4995     8.1097    -7.4086 H       
 213 H213           7.6472     5.9055    -8.1596 H       
 214 H214           7.5419     5.3691    -6.4656 H       
 215 H215           5.9388     7.1990    -5.9858 H       
 216 H216           6.0441     7.7354    -7.6798 H       
 217 H217           5.1918     5.5313    -8.4308 H       
 218 H218           5.0865     4.9949    -6.7368 H       
 219 H219           3.4834     6.8248    -6.2570 H       
 220 H220           3.5888     7.3612    -7.9510 H       
 221 H221           2.6311     4.6206    -7.0080 H       
 222 H222           2.7365     5.1570    -8.7020 H       
@<TRIPOS>BOND
   1    1    2 2
   2    1    4 1
   3    1   10 am
   4    3   84 am
   5    3    4 1
   6    3  101 1
   7    4    5 1
   8    4  102 1
   9    5    6 1
  10    5    7 1
  11    5  103 1
  12    6  104 1
  13    6  105 1
  14    6  106 1
  15    7  107 1
  16    8    9 2
  17    8   11 1
  18    8   18 am
  19   10   11 1
  20   10  108 1
  21   11   12 1
  22   11  109 1
  23   12   13 1
  24   12   15 1
  25   12  110 1
  26   13   14 1
  27   13  111 1
  28   13  112 1
  29   14  113 1
  30   14  114 1
  31   14  115 1
  32   15  116 1
  33   15  117 1
  34   15  118 1
  35   16   17 2
  36   16   19 1
  37   16   27 am
  38   18   19 1
  39   18  119 1
  40   19   20 1
  41   19  120 1
  42   20   21 1
  43   20  121 1
  44   20  122 1
  45   21   22 1
  46   21  123 1
  47   21  124 1
  48   22   23 2
  49   22   24 am
  50   24  125 1
  51   24  126 1
  52   25   26 2
  53   25   28 1
  54   25   39 am
  55   27   28 1
  56   27  127 1
  57   28   29 1
  58   28  128 1
  59   29   30 1
  60   29  129 1
  61   29  130 1
  62   30   31 ar
  63   30   36 ar
  64   31   32 ar
  65   31  131 1
  66   32   33 ar
  67   32  132 1
  68   33   34 1
  69   33   35 ar
  70   34  133 1
  71   35   36 ar
  72   35  134 1
  73   36  135 1
  74   37   38 2
  75   37   40 1
  76   37   50 am
  77   39   40 1
  78   39  136 1
  79   40   41 1
  80   40  137 1
  81   41   42 1
  82   41  138 1
  83   41  139 1
  84   42   43 1
  85   42  140 1
  86   42  141 1
  87   43   44 1
  88   43  142 1
  89   43  143 1
  90   44   45 1
  91   44  144 1
  92   45   46 2
  93   45   47 1
  94   46  145 1
  95   47  146 1
  96   47  147 1
  97   48   49 2
  98   48   51 1
  99   48   59 am
 100   50   51 1
 101   50  148 1
 102   51   52 1
 103   51  149 1
 104   52   53 1
 105   52  150 1
 106   52  151 1
 107   53   54 1
 108   53  152 1
 109   53  153 1
 110   54   55 1
 111   54  154 1
 112   54  155 1
 113   55   56 1
 114   55  156 1
 115   55  157 1
 116   56  158 1
 117   56  159 1
 118   57   58 2
 119   57   60 1
 120   57   64 am
 121   59   60 1
 122   59  160 1
 123   60   61 1
 124   60  161 1
 125   61  162 1
 126   61  163 1
 127   61  164 1
 128   62   63 2
 129   62   65 1
 130   62   71 am
 131   64   65 1
 132   64  165 1
 133   65   66 1
 134   65  166 1
 135   66   67 1
 136   66   68 1
 137   66  167 1
 138   67  168 1
 139   67  169 1
 140   67  170 1
 141   68  171 1
 142   68  172 1
 143   68  173 1
 144   69   70 2
 145   69   72 1
 146   69   80 am
 147   71   72 1
 148   71  174 1
 149   72   73 1
 150   72  175 1
 151   73   74 1
 152   73  176 1
 153   73  177 1
 154   74   75 1
 155   74  178 1
 156   74  179 1
 157   75   76 1
 158   75  180 1
 159   75  181 1
 160   76   77 1
 161   76  182 1
 162   76  183 1
 163   77  184 1
 164   77  185 1
 165   78   79 2
 166   78   81 1
 167   78   83 1
 168   80   81 1
 169   80  186 1
 170   81   82 1
 171   81  187 1
 172   82  188 1
 173   82  189 1
 174   82  190 1
 175   83  191 1
 176   84   85 2
 177   84  100 1
 178   86   87 1
 179   86  192 1
 180   86  193 1
 181   86  194 1
 182   87   88 1
 183   87  195 1
 184   87  196 1
 185   88   89 1
 186   88  197 1
 187   88  198 1
 188   89   90 1
 189   89  199 1
 190   89  200 1
 191   90   91 1
 192   90  201 1
 193   90  202 1
 194   91   92 1
 195   91  203 1
 196   91  204 1
 197   92   93 1
 198   92  205 1
 199   92  206 1
 200   93   94 1
 201   93  207 1
 202   93  208 1
 203   94   95 1
 204   94  209 1
 205   94  210 1
 206   95   96 1
 207   95  211 1
 208   95  212 1
 209   96   97 1
 210   96  213 1
 211   96  214 1
 212   97   98 1
 213   97  215 1
 214   97  216 1
 215   98   99 1
 216   98  217 1
 217   98  218 1
 218   99  100 1
 219   99  219 1
 220   99  220 1
 221  100  221 1
 222  100  222 1

#	End of record

