#	Name: ASD01882418
#	Creating user name:	WinNT
#	Creation time:	15. 06. 2019 19:44

#	Modifying user name:	WinNT
#	Modification time:	15. 06. 2019 19:44

#	Program:	/corina/corina34_cracker 3.40 0067  02.08.2006

@<TRIPOS>MOLECULE
ASD01882418
  54   58    0    0    0
SMALL
NO_CHARGES


@<TRIPOS>ATOM
   1 C1             1.6550     1.3970     1.0690 C.2     
   2 C2             1.7662    -0.0014     0.9876 C.2     
   3 C3             1.2585    -0.6481    -0.1064 C.2     
   4 C4             0.6346     0.0983    -1.1298 C.2     
   5 C5             0.5390     1.4386    -1.0311 C.2     
   6 N6             1.0419     2.0929     0.0555 N.pl3   
   7 N7             1.6947     3.4670     1.5806 N.2     
   8 N8             2.0295     2.2886     1.9739 N.2     
   9 C9             1.0915     3.4056     0.4228 C.2     
  10 C10            2.4364    -0.7792     2.0908 C.3     
  11 F11            3.7866    -0.9658     1.7759 F       
  12 F12            2.3314    -0.0695     3.2919 F       
  13 F13            1.8132    -2.0241     2.2287 F       
  14 N14            1.3570    -2.0324    -0.2098 N.pl3   
  15 C15            2.6677    -2.6812    -0.3502 C.3     
  16 C16            2.6392    -3.5883    -1.5843 C.3     
  17 C17            1.4646    -4.5627    -1.4693 C.3     
  18 C18            0.1519    -3.7778    -1.4163 C.3     
  19 C19            0.1526    -2.8732    -0.1746 C.3     
  20 C20            1.5540    -7.6612    -3.6291 C.ar    
  21 C21            1.5680    -6.8519    -2.5087 C.ar    
  22 C22            1.4536    -5.4793    -2.6654 C.ar    
  23 C23            1.3283    -4.9697    -3.9490 C.ar    
  24 C24            1.3217    -5.8409    -5.0216 C.ar    
  25 N25            1.4332    -7.1417    -4.8350 N.ar    
  26 C26            1.6840    -9.1543    -3.4711 C.3     
  27 C27            0.5482     4.5718    -0.3619 C.3     
  28 C28           -0.9049     4.8266     0.0435 C.3     
  29 C29           -1.6023     6.0484    -0.5580 C.3     
  30 C30           -1.9803     4.6426    -1.0291 C.3     
  31 H31            0.2327    -0.4072    -1.9954 H       
  32 H32            0.0602     2.0003    -1.8195 H       
  33 H33            3.4401    -1.9219    -0.4726 H       
  34 H34            2.8768    -3.2783     0.5374 H       
  35 H35            2.5204    -2.9796    -2.4807 H       
  36 H36            3.5721    -4.1488    -1.6456 H       
  37 H37            1.5711    -5.1540    -0.5598 H       
  38 H38            0.0565    -3.1673    -2.3142 H       
  39 H39           -0.6856    -4.4731    -1.3579 H       
  40 H40            0.1608    -3.4856     0.7271 H       
  41 H41           -0.7350    -2.2406    -0.1811 H       
  42 H42            1.6669    -7.2834    -1.5236 H       
  43 H43            1.2367    -3.9055    -4.1084 H       
  44 H44            1.2245    -5.4520    -6.0245 H       
  45 H45            0.6934    -9.5956    -3.3614 H       
  46 H46            2.1722    -9.5717    -4.3517 H       
  47 H47            2.2803    -9.3754    -2.5859 H       
  48 H48            1.1448     5.4598    -0.1531 H       
  49 H49            0.5938     4.3456    -1.4273 H       
  50 H50           -1.1623     4.5533     1.0668 H       
  51 H51           -2.3188     6.5785     0.0694 H       
  52 H52           -1.0259     6.6706    -1.2426 H       
  53 H53           -1.6526     4.3400    -2.0237 H       
  54 H54           -2.9455     4.2480    -0.7116 H       
@<TRIPOS>BOND
   1    1    2 1
   2    1    6 1
   3    1    8 2
   4    2    3 2
   5    2   10 1
   6    3    4 1
   7    3   14 1
   8    4    5 2
   9    4   31 1
  10    5    6 1
  11    5   32 1
  12    6    9 1
  13    7    8 1
  14    7    9 2
  15    9   27 1
  16   10   11 1
  17   10   12 1
  18   10   13 1
  19   14   15 1
  20   14   19 1
  21   15   16 1
  22   15   33 1
  23   15   34 1
  24   16   17 1
  25   16   35 1
  26   16   36 1
  27   17   18 1
  28   17   22 1
  29   17   37 1
  30   18   19 1
  31   18   38 1
  32   18   39 1
  33   19   40 1
  34   19   41 1
  35   20   21 ar
  36   20   25 ar
  37   20   26 1
  38   21   22 ar
  39   21   42 1
  40   22   23 ar
  41   23   24 ar
  42   23   43 1
  43   24   25 ar
  44   24   44 1
  45   26   45 1
  46   26   46 1
  47   26   47 1
  48   27   28 1
  49   27   48 1
  50   27   49 1
  51   28   29 1
  52   28   30 1
  53   28   50 1
  54   29   30 1
  55   29   51 1
  56   29   52 1
  57   30   53 1
  58   30   54 1

#	End of record

