#	Name: ASD01916130
#	Creating user name:	WinNT
#	Creation time:	15. 06. 2019 20:06

#	Modifying user name:	WinNT
#	Modification time:	15. 06. 2019 20:06

#	Program:	/corina/corina34_cracker 3.40 0067  02.08.2006

@<TRIPOS>MOLECULE
ASD01916130
  44   47    0    0    0
SMALL
NO_CHARGES


@<TRIPOS>ATOM
   1 C1             1.6269     0.1995    -3.5728 C.ar    
   2 C2             1.4392    -1.0912    -3.1115 C.ar    
   3 C3             0.1544    -1.5892    -2.9524 C.ar    
   4 C4            -0.9393    -0.7916    -3.2563 C.ar    
   5 C5            -0.7478     0.4970    -3.7168 C.ar    
   6 C6             0.5324     0.9949    -3.8698 C.ar    
   7 O7            -0.0328    -2.8569    -2.4998 O.3     
   8 C8            -1.3831    -3.3032    -2.3604 C.3     
   9 C9            -1.3934    -4.7214    -1.8510 C.2     
  10 C10           -0.2640    -5.4956    -1.5554 C.2     
  11 N11           -2.4601    -5.4404    -1.6030 N.2     
  12 N12           -2.0445    -6.6932    -1.1442 N.pl3   
  13 C13           -0.6915    -6.6994    -1.1302 C.2     
  14 C14           -2.8928    -7.8157    -0.7340 C.3     
  15 C15           -2.0662    -9.1061    -0.7506 C.3     
  16 N16           -0.7734    -8.8617    -0.0931 N.am    
  17 C17            0.1439    -7.8844    -0.7069 C.3     
  18 C18           -0.4373    -9.5094     1.0400 C.2     
  19 C19            0.9111    -9.3390     1.6151 C.ar    
  20 O20           -1.2450   -10.2340     1.5885 O.2     
  21 C21            2.0340    -9.3456     0.7842 C.ar    
  22 C22            3.2906    -9.1862     1.3263 C.ar    
  23 C23            3.4439    -9.0196     2.6948 C.ar    
  24 C24            2.3357    -9.0118     3.5262 C.ar    
  25 C25            1.0697    -9.1645     2.9945 C.ar    
  26 F26            2.8776     0.6860    -3.7283 F       
  27 F27           -0.0110    -9.1564     3.8051 F       
  28 F28            4.6793    -8.8648     3.2193 F       
  29 H29            2.2921    -1.7105    -2.8758 H       
  30 H30           -1.9402    -1.1780    -3.1333 H       
  31 H31           -1.5996     1.1174    -3.9532 H       
  32 H32            0.6798     2.0025    -4.2295 H       
  33 H33           -1.9074    -2.6596    -1.6539 H       
  34 H34           -1.8815    -3.2613    -3.3289 H       
  35 H35            0.7652    -5.1828    -1.6514 H       
  36 H36           -3.2700    -7.6379     0.2731 H       
  37 H37           -3.7300    -7.9108    -1.4254 H       
  38 H38           -2.6038    -9.8897    -0.2166 H       
  39 H39           -1.8973    -9.4170    -1.7815 H       
  40 H40            0.6279    -8.3251    -1.5785 H       
  41 H41            0.8950    -7.5727     0.0189 H       
  42 H42            1.9173    -9.4759    -0.2816 H       
  43 H43            4.1587    -9.1913     0.6839 H       
  44 H44            2.4613    -8.8821     4.5910 H       
@<TRIPOS>BOND
   1    1    2 ar
   2    1   26 1
   3    1    6 ar
   4    2    3 ar
   5    2   29 1
   6    3    4 ar
   7    3    7 1
   8    4    5 ar
   9    4   30 1
  10    5    6 ar
  11    5   31 1
  12    6   32 1
  13    7    8 1
  14    8    9 1
  15    8   33 1
  16    8   34 1
  17    9   10 1
  18    9   11 2
  19   10   13 2
  20   10   35 1
  21   11   12 1
  22   12   13 1
  23   12   14 1
  24   13   17 1
  25   14   15 1
  26   14   36 1
  27   14   37 1
  28   15   16 1
  29   15   38 1
  30   15   39 1
  31   16   17 1
  32   16   18 am
  33   17   40 1
  34   17   41 1
  35   18   19 1
  36   18   20 2
  37   19   21 ar
  38   19   25 ar
  39   21   22 ar
  40   21   42 1
  41   22   23 ar
  42   22   43 1
  43   23   24 ar
  44   23   28 1
  45   24   25 ar
  46   24   44 1
  47   25   27 1

#	End of record

