#	Name: ASD01814411
#	Creating user name:	WinNT
#	Creation time:	15. 06. 2019 19:32

#	Modifying user name:	WinNT
#	Modification time:	15. 06. 2019 19:32

#	Program:	/corina/corina34_cracker 3.40 0067  02.08.2006

@<TRIPOS>MOLECULE
ASD01814411
  51   55    0    0    0
SMALL
NO_CHARGES


@<TRIPOS>ATOM
   1 N1             1.0058     0.8860     0.5447 N.2     
   2 C2             1.1688    -0.3899     0.8040 C.2     
   3 C3             2.4155    -0.8709     1.2326 C.2     
   4 C4             3.4500    -0.0059     1.3764 C.2     
   5 N5             3.2529     1.3171     1.0997 N.pl3   
   6 C6             2.0204     1.7496     0.6832 C.2     
   7 N7             4.0981     2.4303     1.1499 N.2     
   8 C8             3.4193     3.4982     0.7820 C.2     
   9 C9             2.1212     3.1211     0.4816 C.2     
  10 C10            3.5520     4.9863     0.5700 C.3     
  11 N11            2.2505     5.4913     0.1218 N.am    
  12 C12            1.3431     4.3411     0.0603 C.3     
  13 C13            1.9461     6.7698    -0.1769 C.2     
  14 O14            0.8521     7.0439    -0.6317 O.2     
  15 C15            2.9392     7.8358     0.0476 C.ar    
  16 C16            3.1256     8.8394    -0.9142 C.ar    
  17 C17            3.6955     7.8547     1.2225 C.ar    
  18 C18            4.6217     8.8531     1.4276 C.ar    
  19 C19            4.8078     9.8420     0.4716 C.ar    
  20 C20            4.0611     9.8371    -0.6936 C.ar    
  21 O21            2.3932     8.8328    -2.0560 O.3     
  22 Cl22           2.6315    -2.5588     1.5763 Cl      
  23 F23            5.7184    10.8175     0.6821 F       
  24 C24            4.7985    -0.4975     1.8357 C.3     
  25 C25            0.0125    -1.3425     0.6414 C.3     
  26 C26            2.7296     9.8047    -3.0481 C.3     
  27 C27            2.2967     9.4092    -4.4697 C.3     
  28 C28            1.7192    10.9598    -3.1465 C.3     
  29 C29            1.8955    10.8799    -4.6721 C.3     
  30 N30            2.9852    11.7221    -5.1834 N.3     
  31 H31            3.8331     5.4692     1.5059 H       
  32 H32            4.3071     5.1852    -0.1905 H       
  33 H33            0.9773     4.2125    -0.9584 H       
  34 H34            0.5039     4.4963     0.7384 H       
  35 H35            3.5537     7.0874     1.9691 H       
  36 H36            5.2053     8.8668     2.3362 H       
  37 H37            4.2081    10.6116    -1.4319 H       
  38 H38            4.7549    -1.5735     2.0041 H       
  39 H39            5.5444    -0.2793     1.0714 H       
  40 H40            5.0715     0.0048     2.7637 H       
  41 H41           -0.8664    -0.7929     0.3043 H       
  42 H42            0.2696    -2.1037    -0.0952 H       
  43 H43           -0.2022    -1.8199     1.5974 H       
  44 H44            3.7666    10.1343    -2.9833 H       
  45 H45            3.1230     9.0906    -5.1051 H       
  46 H46            1.4531     8.7193    -4.4932 H       
  47 H47            0.7178    10.6939    -2.8082 H       
  48 H48            2.0794    11.8931    -2.7136 H       
  49 H49            0.9656    11.0066    -5.2263 H       
  50 H50            2.6797    12.6765    -5.3012 H       
  51 H51            3.7933    11.6727    -4.5813 H       
@<TRIPOS>BOND
   1    1    2 2
   2    1    6 1
   3    2    3 1
   4    2   25 1
   5    3    4 2
   6    3   22 1
   7    4    5 1
   8    4   24 1
   9    5    7 1
  10    5    6 1
  11    6    9 2
  12    7    8 2
  13    8   10 1
  14    8    9 1
  15    9   12 1
  16   10   11 1
  17   10   31 1
  18   10   32 1
  19   11   12 1
  20   11   13 am
  21   12   33 1
  22   12   34 1
  23   13   14 2
  24   13   15 1
  25   15   17 ar
  26   15   16 ar
  27   16   20 ar
  28   16   21 1
  29   17   18 ar
  30   17   35 1
  31   18   19 ar
  32   18   36 1
  33   19   20 ar
  34   19   23 1
  35   20   37 1
  36   21   26 1
  37   24   38 1
  38   24   39 1
  39   24   40 1
  40   25   41 1
  41   25   42 1
  42   25   43 1
  43   26   27 1
  44   26   28 1
  45   26   44 1
  46   27   29 1
  47   27   45 1
  48   27   46 1
  49   28   29 1
  50   28   47 1
  51   28   48 1
  52   29   30 1
  53   29   49 1
  54   30   50 1
  55   30   51 1

#	End of record

