#	Name: ASD01900090
#	Creating user name:	WinNT
#	Creation time:	15. 06. 2019 19:51

#	Modifying user name:	WinNT
#	Modification time:	15. 06. 2019 19:51

#	Program:	/corina/corina34_cracker 3.40 0067  02.08.2006

@<TRIPOS>MOLECULE
ASD01900090
  39   41    0    0    0
SMALL
NO_CHARGES


@<TRIPOS>ATOM
   1 C1            -0.0162     1.3436     0.0094 C.2     
   2 N2             0.0021    -0.0041     0.0020 N.am    
   3 O3             1.0280     1.9655     0.0028 O.2     
   4 C4             1.2297    -0.6908    -0.0134 C.2     
   5 C5             1.3919    -2.0388    -0.0222 C.2     
   6 N6             2.7264    -2.2909    -0.0363 N.am    
   7 N7             3.3967    -1.0610    -0.0361 N.2     
   8 C8             2.5040    -0.1047    -0.0285 C.2     
   9 S9             3.4354    -3.7873    -0.0502 S.o2    
  10 O10            4.7418    -3.6173     0.4824 O.2     
  11 O11            2.4832    -4.6877     0.4991 O.2     
  12 C12            3.6425    -4.2506    -1.7376 C.ar    
  13 C13            4.8063    -3.9190    -2.4065 C.ar    
  14 C14            4.9711    -4.2811    -3.7294 C.ar    
  15 C15            3.9677    -4.9780    -4.3868 C.ar    
  16 C16            2.8009    -5.3096    -3.7134 C.ar    
  17 C17            2.6434    -4.9501    -2.3888 C.ar    
  18 C18           -1.3090     2.0667     0.0195 C.ar    
  19 N19           -2.4461     1.3821     0.0212 N.ar    
  20 C20           -3.6148     1.9854     0.0304 C.ar    
  21 C21           -3.7017     3.3682     0.0388 C.ar    
  22 C22           -2.5384     4.1223     0.0374 C.ar    
  23 C23           -1.3212     3.4599     0.0329 C.ar    
  24 O24            4.1272    -5.3350    -5.6883 O.3     
  25 C25            3.0529    -6.0508    -6.3011 C.3     
  26 H26           -0.8313    -0.5005     0.0073 H       
  27 H27            0.6031    -2.7766    -0.0183 H       
  28 H28            2.7127     0.9550    -0.0264 H       
  29 H29            5.5870    -3.3762    -1.8944 H       
  30 H30            5.8801    -4.0215    -4.2516 H       
  31 H31            2.0183    -5.8521    -4.2229 H       
  32 H32            1.7353    -5.2079    -1.8641 H       
  33 H33           -4.5190     1.3949     0.0311 H       
  34 H34           -4.6663     3.8538     0.0460 H       
  35 H35           -2.5798     5.2015     0.0435 H       
  36 H36           -0.3952     4.0157     0.0317 H       
  37 H37            2.8820    -6.9820    -5.7608 H       
  38 H38            2.1485    -5.4431    -6.2728 H       
  39 H39            3.3088    -6.2735    -7.3369 H       
@<TRIPOS>BOND
   1    1    2 am
   2    1    3 2
   3    1   18 1
   4    2    4 1
   5    2   26 1
   6    4    5 2
   7    4    8 1
   8    5    6 1
   9    5   27 1
  10    6    7 1
  11    6    9 am
  12    7    8 2
  13    8   28 1
  14    9   10 2
  15    9   11 2
  16    9   12 1
  17   12   13 ar
  18   12   17 ar
  19   13   14 ar
  20   13   29 1
  21   14   15 ar
  22   14   30 1
  23   15   16 ar
  24   15   24 1
  25   16   17 ar
  26   16   31 1
  27   17   32 1
  28   18   19 ar
  29   18   23 ar
  30   19   20 ar
  31   20   21 ar
  32   20   33 1
  33   21   22 ar
  34   21   34 1
  35   22   23 ar
  36   22   35 1
  37   23   36 1
  38   24   25 1
  39   25   37 1
  40   25   38 1
  41   25   39 1

#	End of record

