#	Name: ASD04590488
#	Creating user name:	WinNT
#	Creation time:	15. 06. 2019 20:50

#	Modifying user name:	WinNT
#	Modification time:	15. 06. 2019 20:50

#	Program:	/corina/corina34_cracker 3.40 0067  02.08.2006

@<TRIPOS>MOLECULE
ASD04590488
  58   63    0    0    0
SMALL
NO_CHARGES


@<TRIPOS>ATOM
   1 C1            -0.0159     1.3847    -0.0418 C.ar    
   2 C2             0.0027    -0.0028    -0.0484 C.ar    
   3 C3             2.3955     0.0199    -0.0533 C.ar    
   4 C4             2.3766     1.4257    -0.0466 C.ar    
   5 C5             1.1634     2.0998    -0.0409 C.ar    
   6 N6             3.6959    -0.3631    -0.0579 N.2     
   7 C7             4.4674     0.6970    -0.0544 C.2     
   8 N8             3.6980     1.8295    -0.0475 N.pl3   
   9 C9             5.9447     0.6732    -0.0572 C.2     
  10 C10            6.7574    -0.4841    -0.0644 C.2     
  11 C11            8.0513    -0.0803    -0.0655 C.2     
  12 N12            8.0637     1.2786    -0.0593 N.pl3   
  13 N13            6.7370     1.7272    -0.0592 N.2     
  14 N14            6.3049    -1.8134    -0.0688 N.am    
  15 C15            7.1927    -2.8274    -0.0755 C.2     
  16 O16            8.3863    -2.5910    -0.0779 O.2     
  17 C17            1.1868    -0.6838    -0.0542 C.ar    
  18 C18            6.7187    -4.2201    -0.0801 C.2     
  19 C19            7.5001    -5.3587    -0.1927 C.2     
  20 C20           -1.2967    -0.7661    -0.0489 C.3     
  21 N21           -1.7223    -1.0075    -1.4340 N.3     
  22 C22           -2.8519    -1.9473    -1.4818 C.3     
  23 C23           -0.6027    -1.4968    -2.2515 C.3     
  24 C24           -1.0741    -1.6778    -3.6968 C.3     
  25 O25           -2.1918    -2.5696    -3.7203 O.3     
  26 C26           -3.3007    -2.1237    -2.9349 C.3     
  27 O27            6.6551    -6.4078    -0.1507 O.3     
  28 C28            5.4073    -5.9364    -0.0181 C.2     
  29 N29            5.4306    -4.6382     0.0312 N.2     
  30 C30            8.9682    -5.4121    -0.3320 C.ar    
  31 C31            9.7223    -6.2431     0.5000 C.ar    
  32 C32            9.6099    -4.6362    -1.3003 C.ar    
  33 C33           10.9825    -4.6912    -1.4248 C.ar    
  34 C34           11.7236    -5.5123    -0.5934 C.ar    
  35 C35           11.0941    -6.2880     0.3642 C.ar    
  36 H36           -0.9605     1.9084    -0.0419 H       
  37 H37            1.1429     3.1795    -0.0361 H       
  38 H38            4.0204     2.7444    -0.0435 H       
  39 H39            8.9184    -0.7242    -0.0702 H       
  40 H40            8.8544     1.8405    -0.0581 H       
  41 H41            5.3534    -2.0018    -0.0669 H       
  42 H42            1.1897    -1.7638    -0.0589 H       
  43 H43           -1.1579    -1.7199     0.4601 H       
  44 H44           -2.0595    -0.1852     0.4696 H       
  45 H45           -2.5414    -2.9106    -1.0773 H       
  46 H46           -3.6786    -1.5530    -0.8909 H       
  47 H47            0.2125    -0.7738    -2.2223 H       
  48 H48           -0.2562    -2.4529    -1.8592 H       
  49 H49           -1.3702    -0.7122    -4.1067 H       
  50 H50           -0.2634    -2.0944    -4.2946 H       
  51 H51           -4.1005    -2.8629    -2.9816 H       
  52 H52           -3.6617    -1.1711    -3.3226 H       
  53 H53            4.5168    -6.5445     0.0432 H       
  54 H54            9.2323    -6.8488     1.2480 H       
  55 H55            9.0327    -3.9952    -1.9501 H       
  56 H56           11.4799    -4.0921    -2.1732 H       
  57 H57           12.7981    -5.5516    -0.6955 H       
  58 H58           11.6788    -6.9266     1.0098 H       
@<TRIPOS>BOND
   1    1    2 ar
   2    1    5 ar
   3    1   36 1
   4    2   17 ar
   5    2   20 1
   6    3    4 ar
   7    3    6 1
   8    3   17 ar
   9    4    5 ar
  10    4    8 1
  11    5   37 1
  12    6    7 2
  13    7    8 1
  14    7    9 1
  15    8   38 1
  16    9   10 1
  17    9   13 2
  18   10   11 2
  19   10   14 1
  20   11   12 1
  21   11   39 1
  22   12   13 1
  23   12   40 1
  24   14   15 am
  25   14   41 1
  26   15   16 2
  27   15   18 1
  28   17   42 1
  29   18   19 2
  30   18   29 1
  31   19   27 1
  32   19   30 1
  33   20   21 1
  34   20   43 1
  35   20   44 1
  36   21   22 1
  37   21   23 1
  38   22   26 1
  39   22   45 1
  40   22   46 1
  41   23   24 1
  42   23   47 1
  43   23   48 1
  44   24   25 1
  45   24   49 1
  46   24   50 1
  47   25   26 1
  48   26   51 1
  49   26   52 1
  50   27   28 1
  51   28   29 2
  52   28   53 1
  53   30   31 ar
  54   30   32 ar
  55   31   35 ar
  56   31   54 1
  57   32   33 ar
  58   32   55 1
  59   33   34 ar
  60   33   56 1
  61   34   35 ar
  62   34   57 1
  63   35   58 1

#	End of record

