#	Name: ASD03240727
#	Creating user name:	WinNT
#	Creation time:	15. 06. 2019 20:35

#	Modifying user name:	WinNT
#	Modification time:	15. 06. 2019 20:35

#	Program:	/corina/corina34_cracker 3.40 0067  02.08.2006

@<TRIPOS>MOLECULE
ASD03240727
  75   81    0    0    0
SMALL
NO_CHARGES


@<TRIPOS>ATOM
   1 C1            -0.0144     1.2086     0.0087 C.2     
   2 O2             0.1277     0.0499     0.3374 O.2     
   3 N3             1.0559     1.9411    -0.3580 N.am    
   4 C4             2.4171     1.3885    -0.2731 C.3     
   5 C5             3.1142     1.6113    -1.6201 C.3     
   6 O6             3.0103     2.9906    -1.9814 O.3     
   7 C7             1.6689     3.4457    -2.1743 C.3     
   8 C8             0.8972     3.3149    -0.8610 C.3     
   9 N9            -4.0003     2.0767     1.2104 N.3     
  10 C10           -3.8393     1.3554    -0.0585 C.3     
  11 C11           -2.4454     0.7263    -0.1159 C.3     
  12 C12           -1.3884     1.8276     0.0043 C.3     
  13 C13           -1.6082     2.5946     1.3112 C.3     
  14 C14           -3.0264     3.1695     1.3272 C.3     
  15 C15           -5.3733     2.5768     1.3611 C.3     
  16 C16           -5.5695     3.0907     2.7641 C.ar    
  17 C17           -5.3004     4.4160     3.0563 C.ar    
  18 C18           -5.4786     4.8926     4.3388 C.ar    
  19 C19           -5.9310     4.0352     5.3418 C.ar    
  20 C20           -6.2005     2.7001     5.0409 C.ar    
  21 C21           -6.0235     2.2367     3.7534 C.ar    
  22 C22           -4.7297     7.3841    10.1836 C.2     
  23 N23           -5.7134     6.9489    10.9908 N.2     
  24 C24           -6.5743     6.0414    10.6084 C.2     
  25 C25           -6.4661     5.4825     9.2624 C.ar    
  26 C26           -5.4313     5.9430     8.4203 C.ar    
  27 N27           -4.5690     6.9040     8.9121 N.pl3   
  28 C28           -7.3566     4.5101     8.7960 C.ar    
  29 C29           -7.1799     4.0322     7.5013 C.ar    
  30 C30           -6.1238     4.5402     6.7205 C.ar    
  31 N31           -5.3000     5.4619     7.1966 N.ar    
  32 N32           -3.4665     7.5538     8.3442 N.2     
  33 C33           -2.9721     8.3931     9.2223 C.2     
  34 C34           -3.7240     8.3190    10.3881 C.2     
  35 C35           -8.0916     3.0008     6.9509 C.ar    
  36 C36           -8.3591     1.8428     7.6794 C.ar    
  37 C37           -9.2090     0.8863     7.1623 C.ar    
  38 C38           -9.7946     1.0748     5.9233 C.ar    
  39 C39           -9.5326     2.2218     5.1957 C.ar    
  40 C40           -8.6892     3.1879     5.7055 C.ar    
  41 C41           -1.7793     9.2879     9.0043 C.3     
  42 H42            2.9712     1.8973     0.5157 H       
  43 H43            2.3672     0.3212    -0.0577 H       
  44 H44            4.1653     1.3351    -1.5361 H       
  45 H45            2.6357     0.9979    -2.3835 H       
  46 H46            1.6801     4.4892    -2.4890 H       
  47 H47            1.1851     2.8390    -2.9397 H       
  48 H48           -0.1586     3.5226    -1.0347 H       
  49 H49            1.2958     4.0209    -0.1324 H       
  50 H50           -4.5943     0.5724    -0.1295 H       
  51 H51           -3.9583     2.0509    -0.8893 H       
  52 H52           -2.3306     0.0204     0.7066 H       
  53 H53           -2.3205     0.2041    -1.0645 H       
  54 H54           -1.4771     2.5114    -0.8398 H       
  55 H55           -1.4802     1.9181     2.1562 H       
  56 H56           -0.8853     3.4073     1.3822 H       
  57 H57           -3.1492     3.8566     0.4900 H       
  58 H58           -3.1910     3.7042     2.2627 H       
  59 H59           -5.5456     3.3853     0.6506 H       
  60 H60           -6.0779     1.7677     1.1687 H       
  61 H61           -4.9499     5.0787     2.2789 H       
  62 H62           -5.2679     5.9272     4.5657 H       
  63 H63           -6.5507     2.0313     5.8133 H       
  64 H64           -6.2358     1.2042     3.5183 H       
  65 H65           -7.3544     5.7101    11.2778 H       
  66 H66           -8.1561     4.1412     9.4214 H       
  67 H67           -3.5572     8.8879    11.2908 H       
  68 H68           -7.9018     1.6942     8.6465 H       
  69 H69           -9.4169    -0.0112     7.7258 H       
  70 H70          -10.4588     0.3235     5.5224 H       
  71 H71           -9.9924     2.3635     4.2288 H       
  72 H72           -8.4889     4.0850     5.1386 H       
  73 H73           -2.1109    10.2422     8.5950 H       
  74 H74           -1.2729     9.4564     9.9547 H       
  75 H75           -1.0912     8.8123     8.3054 H       
@<TRIPOS>BOND
   1    1    2 2
   2    1    3 am
   3    1   12 1
   4    3    4 1
   5    3    8 1
   6    4    5 1
   7    4   42 1
   8    4   43 1
   9    5    6 1
  10    5   44 1
  11    5   45 1
  12    6    7 1
  13    7    8 1
  14    7   46 1
  15    7   47 1
  16    8   48 1
  17    8   49 1
  18    9   10 1
  19    9   14 1
  20    9   15 1
  21   10   11 1
  22   10   50 1
  23   10   51 1
  24   11   12 1
  25   11   52 1
  26   11   53 1
  27   12   13 1
  28   12   54 1
  29   13   14 1
  30   13   55 1
  31   13   56 1
  32   14   57 1
  33   14   58 1
  34   15   16 1
  35   15   59 1
  36   15   60 1
  37   16   17 ar
  38   16   21 ar
  39   17   18 ar
  40   17   61 1
  41   18   19 ar
  42   18   62 1
  43   19   20 ar
  44   19   30 1
  45   20   21 ar
  46   20   63 1
  47   21   64 1
  48   22   23 1
  49   22   27 1
  50   22   34 2
  51   23   24 2
  52   24   25 1
  53   24   65 1
  54   25   26 ar
  55   25   28 ar
  56   26   27 1
  57   26   31 ar
  58   27   32 1
  59   28   29 ar
  60   28   66 1
  61   29   30 ar
  62   29   35 1
  63   30   31 ar
  64   32   33 2
  65   33   34 1
  66   33   41 1
  67   34   67 1
  68   35   36 ar
  69   35   40 ar
  70   36   37 ar
  71   36   68 1
  72   37   38 ar
  73   37   69 1
  74   38   39 ar
  75   38   70 1
  76   39   40 ar
  77   39   71 1
  78   40   72 1
  79   41   73 1
  80   41   74 1
  81   41   75 1

#	End of record

