#	Name: ASD01883129
#	Creating user name:	WinNT
#	Creation time:	15. 06. 2019 19:45

#	Modifying user name:	WinNT
#	Modification time:	15. 06. 2019 19:45

#	Program:	/corina/corina34_cracker 3.40 0067  02.08.2006

@<TRIPOS>MOLECULE
ASD01883129
  35   36    0    0    0
SMALL
NO_CHARGES


@<TRIPOS>ATOM
   1 N1            -0.0162     1.3415     0.0094 N.am    
   2 C2             0.0021    -0.0041     0.0020 C.2     
   3 C3            -1.2142    -0.7274     0.0097 C.2     
   4 C4            -2.4283    -0.0085     0.0252 C.2     
   5 C5            -2.3786     1.4034     0.0323 C.2     
   6 C6            -1.1856     2.0351     0.0299 C.2     
   7 O7             1.0660    -0.5997    -0.0117 O.2     
   8 C8            -1.2128    -2.1594     0.0016 C.1     
   9 N9            -1.2118    -3.2953    -0.0049 N.1     
  10 C10            1.2518     2.0752     0.0013 C.3     
  11 C11            1.6795     2.3383    -1.4440 C.3     
  12 C12            3.0038     3.1046    -1.4525 C.3     
  13 C13            3.4944     3.2589    -2.8935 C.3     
  14 C14            2.7964     4.4883    -0.8335 C.3     
  15 C15           -3.7159    -0.7128     0.0332 C.2     
  16 C16           -4.6274    -0.6861     1.0510 C.2     
  17 C17           -5.7509    -1.4374     0.7947 C.2     
  18 C18           -5.7597    -2.0582    -0.3920 C.2     
  19 S19           -4.3354    -1.7197    -1.2682 S.3     
  20 Cl20          -7.0509    -3.0673    -0.9649 Cl      
  21 H21           -3.2939     1.9766     0.0441 H       
  22 H22           -1.1595     3.1148     0.0354 H       
  23 H23            1.1256     3.0247     0.5214 H       
  24 H24            2.0169     1.4841     0.5046 H       
  25 H25            1.8058     1.3888    -1.9642 H       
  26 H26            0.9145     2.9294    -1.9474 H       
  27 H27            3.7454     2.5547    -0.8731 H       
  28 H28            2.7528     3.8087    -3.4729 H       
  29 H29            4.4379     3.8048    -2.8996 H       
  30 H30            3.6422     2.2731    -3.3345 H       
  31 H31            2.4468     4.3783     0.1931 H       
  32 H32            3.7398     5.0341    -0.8395 H       
  33 H33            2.0547     5.0381    -1.4129 H       
  34 H34           -4.4804    -0.1306     1.9654 H       
  35 H35           -6.5657    -1.5207     1.4987 H       
@<TRIPOS>BOND
   1    1    2 am
   2    1   10 1
   3    1    6 1
   4    2    3 1
   5    2    7 2
   6    3    4 2
   7    3    8 1
   8    4    5 1
   9    4   15 1
  10    5    6 2
  11    5   21 1
  12    6   22 1
  13    8    9 3
  14   10   11 1
  15   10   23 1
  16   10   24 1
  17   11   12 1
  18   11   25 1
  19   11   26 1
  20   12   13 1
  21   12   14 1
  22   12   27 1
  23   13   28 1
  24   13   29 1
  25   13   30 1
  26   14   31 1
  27   14   32 1
  28   14   33 1
  29   15   16 2
  30   15   19 1
  31   16   17 1
  32   16   34 1
  33   17   18 2
  34   17   35 1
  35   18   19 1
  36   18   20 1

#	End of record

