#	Name: ASD01420457
#	Creating user name:	WinNT
#	Creation time:	15. 06. 2019 19:20

#	Modifying user name:	WinNT
#	Modification time:	15. 06. 2019 19:20

#	Program:	/corina/corina34_cracker 3.40 0067  02.08.2006

@<TRIPOS>MOLECULE
ASD01420457
  35   37    0    0    0
SMALL
NO_CHARGES


@<TRIPOS>ATOM
   1 C1            -0.0173     1.4248     0.0099 C.3     
   2 O2             0.0021    -0.0041     0.0020 O.3     
   3 C3             5.3764     3.4172    -0.3375 C.3     
   4 N4             5.3225     3.8662    -1.7473 N.3     
   5 C5             4.2637     3.0238    -2.3483 C.3     
   6 C6             3.3299     2.6698    -1.2132 C.ar    
   7 C7             2.0334     2.1920    -1.2027 C.ar    
   8 C8             1.3965     1.9464    -0.0008 C.ar    
   9 C9             2.0563     2.1797     1.1916 C.ar    
  10 C10            3.3530     2.6581     1.1819 C.ar    
  11 C11            3.9906     2.9034    -0.0193 C.ar    
  12 C12            6.6114     3.6502    -2.4182 C.3     
  13 C13            6.8377     2.1723    -2.6072 C.ar    
  14 C14            6.3963     1.5471    -3.7584 C.ar    
  15 C15            6.6039     0.1915    -3.9318 C.ar    
  16 C16            7.2534    -0.5389    -2.9543 C.ar    
  17 C17            7.6956     0.0865    -1.8035 C.ar    
  18 C18            7.4918     1.4429    -1.6320 C.ar    
  19 H19           -0.5445     1.7859    -0.8732 H       
  20 H20           -0.5275     1.7763     0.9067 H       
  21 H21           -0.8759    -0.4094     0.0082 H       
  22 H22            6.1093     2.6184    -0.2245 H       
  23 H23            5.6267     4.2538     0.3148 H       
  24 H24            3.7284     3.5826    -3.1159 H       
  25 H25            4.6984     2.1195    -2.7742 H       
  26 H26            1.5176     2.0102    -2.1339 H       
  27 H27            1.5583     1.9884     2.1306 H       
  28 H28            3.8680     2.8406     2.1135 H       
  29 H29            6.6023     4.1436    -3.3900 H       
  30 H30            7.4130     4.0653    -1.8074 H       
  31 H31            5.8889     2.1178    -4.5222 H       
  32 H32            6.2584    -0.2970    -4.8309 H       
  33 H33            7.4149    -1.5981    -3.0894 H       
  34 H34            8.2027    -0.4842    -1.0396 H       
  35 H35            7.8406     1.9322    -0.7346 H       
@<TRIPOS>BOND
   1    1    2 1
   2    1    8 1
   3    1   19 1
   4    1   20 1
   5    2   21 1
   6    3    4 1
   7    3   11 1
   8    3   22 1
   9    3   23 1
  10    4    5 1
  11    4   12 1
  12    5    6 1
  13    5   24 1
  14    5   25 1
  15    6    7 ar
  16    6   11 ar
  17    7    8 ar
  18    7   26 1
  19    8    9 ar
  20    9   10 ar
  21    9   27 1
  22   10   11 ar
  23   10   28 1
  24   12   13 1
  25   12   29 1
  26   12   30 1
  27   13   14 ar
  28   13   18 ar
  29   14   15 ar
  30   14   31 1
  31   15   16 ar
  32   15   32 1
  33   16   17 ar
  34   16   33 1
  35   17   18 ar
  36   17   34 1
  37   18   35 1

#	End of record

