#	Name: ASD02560321
#	Creating user name:	WinNT
#	Creation time:	15. 06. 2019 20:25

#	Modifying user name:	WinNT
#	Modification time:	15. 06. 2019 20:25

#	Program:	/corina/corina34_cracker 3.40 0067  02.08.2006

@<TRIPOS>MOLECULE
ASD02560321
  33   35    0    0    0
SMALL
NO_CHARGES


@<TRIPOS>ATOM
   1 C1             0.0098     1.2808     0.2575 C.2     
   2 N2             0.0163    -0.0236     0.1331 N.2     
   3 C3            -1.2822    -0.3937     0.1237 C.2     
   4 N4            -1.9955     0.6943     0.2416 N.2     
   5 O5            -1.2694     1.6623     0.3253 O.3     
   6 N6            -1.7690    -1.6904     0.0099 N.pl3   
   7 C7             1.2171     2.1806     0.3192 C.3     
   8 C8             1.5913     2.6153    -1.0744 C.ar    
   9 C9             1.0467     3.7690    -1.6090 C.ar    
  10 C10            1.3910     4.1679    -2.8883 C.ar    
  11 C11            2.2790     3.4137    -3.6322 C.ar    
  12 C12            2.8232     2.2606    -3.0987 C.ar    
  13 C13            2.4840     1.8638    -1.8173 C.ar    
  14 C14           -3.1358    -1.9341     0.1268 C.ar    
  15 C15           -3.7110    -3.0034    -0.5534 C.ar    
  16 C16           -5.0611    -3.2471    -0.4401 C.ar    
  17 C17           -5.8545    -2.4192     0.3596 C.ar    
  18 C18           -5.2733    -1.3462     1.0419 C.ar    
  19 C19           -3.9217    -1.1112     0.9279 C.ar    
  20 Cl20          -0.0690     4.7160    -0.6752 Cl      
  21 Cl21           3.1681     0.4158    -1.1472 Cl      
  22 C22           -7.2593    -2.6694     0.4794 C.1     
  23 N23           -8.3738    -2.8679     0.5744 N.1     
  24 H24           -1.1572    -2.4258    -0.1510 H       
  25 H25            0.9861     3.0577     0.9237 H       
  26 H26            2.0507     1.6399     0.7673 H       
  27 H27            0.9656     5.0684    -3.3060 H       
  28 H28            2.5475     3.7255    -4.6307 H       
  29 H29            3.5165     1.6714    -3.6806 H       
  30 H30           -3.0975    -3.6425    -1.1710 H       
  31 H31           -5.5069    -4.0766    -0.9688 H       
  32 H32           -5.8833    -0.7047     1.6605 H       
  33 H33           -3.4720    -0.2825     1.4547 H       
@<TRIPOS>BOND
   1    1    2 2
   2    1    7 1
   3    1    5 1
   4    2    3 1
   5    3    4 2
   6    3    6 1
   7    4    5 1
   8    6   14 1
   9    6   24 1
  10    7    8 1
  11    7   25 1
  12    7   26 1
  13    8    9 ar
  14    8   13 ar
  15    9   10 ar
  16    9   20 1
  17   10   11 ar
  18   10   27 1
  19   11   12 ar
  20   11   28 1
  21   12   13 ar
  22   12   29 1
  23   13   21 1
  24   14   15 ar
  25   14   19 ar
  26   15   16 ar
  27   15   30 1
  28   16   17 ar
  29   16   31 1
  30   17   18 ar
  31   17   22 1
  32   18   19 ar
  33   18   32 1
  34   19   33 1
  35   22   23 3

#	End of record

