#	Name: ASD01900874
#	Creating user name:	WinNT
#	Creation time:	15. 06. 2019 19:52

#	Modifying user name:	WinNT
#	Modification time:	15. 06. 2019 19:52

#	Program:	/corina/corina34_cracker 3.40 0067  02.08.2006

@<TRIPOS>MOLECULE
ASD01900874
  64   68    0    0    0
SMALL
NO_CHARGES


@<TRIPOS>ATOM
   1 C1            -2.9699     4.6769    -1.6088 C.ar    
   2 C2            -3.4365     3.4326    -1.2406 C.ar    
   3 C3            -2.5834     2.5049    -0.6607 C.ar    
   4 C4            -1.2549     2.8160    -0.4362 C.ar    
   5 C5            -0.7730     4.0631    -0.7945 C.ar    
   6 C6            -1.6317     5.0005    -1.3960 C.ar    
   7 N7             0.5498     4.4287    -0.5709 N.pl3   
   8 C8             1.1724     5.4129    -1.4635 C.3     
   9 N9             0.2476     6.5162    -1.7258 N.am    
  10 C10           -1.0839     6.3136    -1.7770 C.2     
  11 C11            0.7552     7.8059    -1.9268 C.ar    
  12 C12            1.1636     8.5688    -0.8408 C.ar    
  13 C13            1.6644     9.8401    -1.0398 C.ar    
  14 C14            1.7596    10.3553    -2.3243 C.ar    
  15 C15            1.3514     9.5939    -3.4097 C.ar    
  16 C16            0.8557     8.3202    -3.2128 C.ar    
  17 O17            2.2528    11.6073    -2.5195 O.3     
  18 O18           -1.8268     7.2074    -2.1353 O.2     
  19 C19            2.3226    12.0741    -3.8683 C.3     
  20 C20            2.4430     5.9591    -0.8055 C.3     
  21 C21            1.5447     4.7337    -2.7845 C.3     
  22 C22            2.2555     5.7439    -3.6881 C.3     
  23 N23            3.4622     6.2407    -3.0149 N.3     
  24 C24            3.1268     6.9355    -1.7655 C.3     
  25 C25            4.2430     7.1086    -3.9066 C.3     
  26 C26            5.1551     7.9826    -3.0849 C.ar    
  27 C27            5.3579     9.3016    -3.4454 C.ar    
  28 C28            6.1946    10.1033    -2.6917 C.ar    
  29 C29            6.8282     9.5861    -1.5773 C.ar    
  30 C30            6.6247     8.2673    -1.2163 C.ar    
  31 C31            5.7845     7.4668    -1.9675 C.ar    
  32 Br32          -3.2430     0.8011    -0.1727 Br      
  33 F33            1.0392    12.0846    -4.4251 F       
  34 F34            2.8495    13.3699    -3.8866 F       
  35 F35            3.1473    11.2247    -4.6137 F       
  36 C36            5.0798     6.2461    -4.8535 C.3     
  37 C37            4.1514     5.4455    -5.7689 C.3     
  38 H38           -3.6368     5.3945    -2.0634 H       
  39 H39           -4.4733     3.1786    -1.4045 H       
  40 H40           -0.5966     2.0895     0.0169 H       
  41 H41            1.0522     4.0398     0.1620 H       
  42 H42            1.0892     8.1680     0.1593 H       
  43 H43            1.9817    10.4337    -0.1952 H       
  44 H44            1.4255     9.9958    -4.4094 H       
  45 H45            0.5425     7.7258    -4.0583 H       
  46 H46            2.1813     6.4782     0.1166 H       
  47 H47            3.1200     5.1349    -0.5809 H       
  48 H48            2.2085     3.8920    -2.5867 H       
  49 H49            0.6406     4.3770    -3.2779 H       
  50 H50            2.5350     5.2602    -4.6241 H       
  51 H51            1.5862     6.5785    -3.8966 H       
  52 H52            2.4532     7.7650    -1.9808 H       
  53 H53            4.0385     7.3178    -1.3064 H       
  54 H54            3.5663     7.7349    -4.4881 H       
  55 H55            4.8629     9.7057    -4.3161 H       
  56 H56            6.3536    11.1336    -2.9738 H       
  57 H57            7.4824    10.2122    -0.9888 H       
  58 H58            7.1199     7.8632    -0.3458 H       
  59 H59            5.6226     6.4376    -1.6833 H       
  60 H60            5.7214     6.8874    -5.4578 H       
  61 H61            5.6959     5.5605    -4.2716 H       
  62 H62            3.8283     4.5395    -5.2562 H       
  63 H63            3.2804     6.0502    -6.0216 H       
  64 H64            4.6840     5.1765    -6.6811 H       
@<TRIPOS>BOND
   1    1    2 ar
   2    1    6 ar
   3    1   38 1
   4    2    3 ar
   5    2   39 1
   6    3    4 ar
   7    3   32 1
   8    4    5 ar
   9    4   40 1
  10    5    7 1
  11    5    6 ar
  12    6   10 1
  13    7    8 1
  14    7   41 1
  15    8    9 1
  16    8   21 1
  17    8   20 1
  18    9   10 am
  19    9   11 1
  20   10   18 2
  21   11   12 ar
  22   11   16 ar
  23   12   13 ar
  24   12   42 1
  25   13   14 ar
  26   13   43 1
  27   14   15 ar
  28   14   17 1
  29   15   16 ar
  30   15   44 1
  31   16   45 1
  32   17   19 1
  33   19   33 1
  34   19   34 1
  35   19   35 1
  36   20   24 1
  37   20   46 1
  38   20   47 1
  39   21   22 1
  40   21   48 1
  41   21   49 1
  42   22   23 1
  43   22   50 1
  44   22   51 1
  45   23   24 1
  46   23   25 1
  47   24   52 1
  48   24   53 1
  49   25   26 1
  50   25   36 1
  51   25   54 1
  52   26   27 ar
  53   26   31 ar
  54   27   28 ar
  55   27   55 1
  56   28   29 ar
  57   28   56 1
  58   29   30 ar
  59   29   57 1
  60   30   31 ar
  61   30   58 1
  62   31   59 1
  63   36   37 1
  64   36   60 1
  65   36   61 1
  66   37   62 1
  67   37   63 1
  68   37   64 1

#	End of record

