#	Name: ASD01884510
#	Creating user name:	WinNT
#	Creation time:	15. 06. 2019 19:48

#	Modifying user name:	WinNT
#	Modification time:	15. 06. 2019 19:48

#	Program:	/corina/corina34_cracker 3.40 0067  02.08.2006

@<TRIPOS>MOLECULE
ASD01884510
  62   65    0    0    0
SMALL
NO_CHARGES


@<TRIPOS>ATOM
   1 C1             0.0275     1.4898     0.0858 C.2     
   2 C2             0.0921     0.0999     0.0275 C.2     
   3 C3            -1.0957    -0.6297    -0.0393 C.2     
   4 C4            -2.2905     0.0132    -0.0473 C.2     
   5 N5            -2.3612     1.3654     0.0092 N.am    
   6 C6            -1.2460     2.1167     0.0807 C.2     
   7 O7            -1.3295     3.3319     0.1306 O.2     
   8 C8            -3.6718     2.0199    -0.0023 C.3     
   9 C9             1.2246     2.2725     0.1556 C.1     
  10 N10            2.1743     2.8934     0.2110 N.1     
  11 N11            1.7599    -1.0006     1.4102 N.3     
  12 C12            2.9273    -1.8930     1.4310 C.3     
  13 C13            3.2927    -2.2170     2.8815 C.3     
  14 N14            2.1417    -2.8448     3.5453 N.3     
  15 C15            0.9742    -1.9524     3.5245 C.3     
  16 C16            0.6089    -1.6284     2.0740 C.3     
  17 C17           -4.1643     2.1829     1.4126 C.ar    
  18 C18            1.4239    -0.6053     0.0359 C.3     
  19 N19            2.4542    -3.2124     4.8233 N.pl3   
  20 C20           -3.8558     3.3281     2.1232 C.ar    
  21 C21           -4.3061     3.4799     3.4203 C.ar    
  22 C22           -5.0684     2.4820     4.0099 C.ar    
  23 C23           -5.3767     1.3338     3.2948 C.ar    
  24 C24           -4.9287     1.1894     1.9960 C.ar    
  25 O25           -5.5122     2.6287     5.2860 O.3     
  26 C26            3.3916    -4.2227     5.0499 C.ar    
  27 C27            1.8061    -2.5469     5.9561 C.3     
  28 C28            3.8291    -4.4895     6.3410 C.ar    
  29 C29            4.7557    -5.4895     6.5616 C.ar    
  30 C30            5.2479    -6.2249     5.4990 C.ar    
  31 C31            4.8144    -5.9620     4.2124 C.ar    
  32 C32            3.8841    -4.9669     3.9853 C.ar    
  33 C33           -6.2919     1.5611     5.8286 C.3     
  34 F34           -5.5360     0.3839     5.8265 F       
  35 F35           -6.6630     1.8746     7.1405 F       
  36 F36           -7.4399     1.3796     5.0499 F       
  37 H37           -1.0638    -1.7082    -0.0850 H       
  38 H38           -3.2022    -0.5633    -0.1000 H       
  39 H39           -3.5845     2.9998    -0.4718 H       
  40 H40           -4.3780     1.4092    -0.5648 H       
  41 H41            2.6895    -2.8153     0.9011 H       
  42 H42            3.7699    -1.4009     0.9450 H       
  43 H43            4.1404    -2.9019     2.8987 H       
  44 H44            3.5569    -1.2976     3.4040 H       
  45 H45            0.1317    -2.4444     4.0105 H       
  46 H46            1.2121    -1.0300     4.0544 H       
  47 H47           -0.2389    -0.9434     2.0569 H       
  48 H48            0.3447    -2.5477     1.5515 H       
  49 H49            1.3690    -1.4929    -0.5944 H       
  50 H50            2.1926     0.0656    -0.3475 H       
  51 H51           -3.2619     4.1045     1.6639 H       
  52 H52           -4.0645     4.3745     3.9751 H       
  53 H53           -5.9700     0.5556     3.7516 H       
  54 H54           -5.1684     0.2957     1.4388 H       
  55 H55            0.8942    -3.0829     6.2191 H       
  56 H56            2.4834    -2.5413     6.8101 H       
  57 H57            1.5586    -1.5214     5.6820 H       
  58 H58            3.4454    -3.9153     7.1713 H       
  59 H59            5.0965    -5.6973     7.5652 H       
  60 H60            5.9727    -7.0062     5.6742 H       
  61 H61            5.2009    -6.5382     3.3847 H       
  62 H62            3.5457    -4.7622     2.9803 H       
@<TRIPOS>BOND
   1    1    2 2
   2    1    9 1
   3    1    6 1
   4    2    3 1
   5    2   18 1
   6    3    4 2
   7    3   37 1
   8    4    5 1
   9    4   38 1
  10    5    6 am
  11    5    8 1
  12    6    7 2
  13    8   17 1
  14    8   39 1
  15    8   40 1
  16    9   10 3
  17   11   12 1
  18   11   16 1
  19   11   18 1
  20   12   13 1
  21   12   41 1
  22   12   42 1
  23   13   14 1
  24   13   43 1
  25   13   44 1
  26   14   15 1
  27   14   19 1
  28   15   16 1
  29   15   45 1
  30   15   46 1
  31   16   47 1
  32   16   48 1
  33   17   20 ar
  34   17   24 ar
  35   18   49 1
  36   18   50 1
  37   19   26 1
  38   19   27 1
  39   20   21 ar
  40   20   51 1
  41   21   22 ar
  42   21   52 1
  43   22   23 ar
  44   22   25 1
  45   23   24 ar
  46   23   53 1
  47   24   54 1
  48   25   33 1
  49   26   28 ar
  50   26   32 ar
  51   27   55 1
  52   27   56 1
  53   27   57 1
  54   28   29 ar
  55   28   58 1
  56   29   30 ar
  57   29   59 1
  58   30   31 ar
  59   30   60 1
  60   31   32 ar
  61   31   61 1
  62   32   62 1
  63   33   34 1
  64   33   35 1
  65   33   36 1

#	End of record

