#	Name: ASD01908019
#	Creating user name:	WinNT
#	Creation time:	15. 06. 2019 19:54

#	Modifying user name:	WinNT
#	Modification time:	15. 06. 2019 19:54

#	Program:	/corina/corina34_cracker 3.40 0067  02.08.2006

@<TRIPOS>MOLECULE
ASD01908019
  42   45    0    0    0
SMALL
NO_CHARGES


@<TRIPOS>ATOM
   1 C1            -0.0168     1.3851     0.0097 C.ar    
   2 C2             0.0021    -0.0041     0.0020 C.ar    
   3 C3             1.2200    -0.6608    -0.0132 C.ar    
   4 C4             2.3819     0.0991    -0.0202 C.ar    
   5 C5             2.2883     1.4765    -0.0120 C.ar    
   6 N6             1.1121     2.0744     0.0026 N.ar    
   7 O7            -1.2045     2.0409     0.0188 O.3     
   8 S8             0.2357     4.3492     0.0240 S.3     
   9 C9            -1.1830     3.3962     0.0261 C.2     
  10 N10           -2.2335     4.1512     0.0352 N.2     
  11 C11           -2.0308     5.4625     0.0409 C.2     
  12 C12           -0.7343     5.8196     0.0363 C.2     
  13 N13           -5.1401     7.3392     0.1236 N.pl3   
  14 N14           -4.2050     8.3741     0.0014 N.2     
  15 C15           -3.0087     7.8495    -0.0425 C.2     
  16 C16           -3.1400     6.4507     0.0510 C.2     
  17 C17           -4.4701     6.1676     0.1525 C.2     
  18 C18           -6.5936     7.5002     0.2113 C.3     
  19 C19           -6.9282     8.4316     1.3478 C.ar    
  20 C20           -7.0230     9.7921     1.1201 C.ar    
  21 C21           -7.3296    10.6480     2.1603 C.ar    
  22 C22           -7.5423    10.1414     3.4341 C.ar    
  23 C23           -7.4465     8.7759     3.6600 C.ar    
  24 C24           -7.1453     7.9237     2.6153 C.ar    
  25 O25           -7.8435    10.9813     4.4591 O.3     
  26 C26           -8.0496    10.3898     5.7435 C.3     
  27 H27           -0.9215    -0.5639     0.0082 H       
  28 H28            1.2657    -1.7398    -0.0191 H       
  29 H29            3.3487    -0.3822    -0.0317 H       
  30 H30            3.1891     2.0722    -0.0170 H       
  31 H31           -0.3544     6.8305     0.0396 H       
  32 H32           -2.0807     8.3942    -0.1350 H       
  33 H33           -4.9081     5.1843     0.2407 H       
  34 H34           -6.9700     7.9171    -0.7228 H       
  35 H35           -7.0567     6.5296     0.3887 H       
  36 H36           -6.8570    10.1860     0.1283 H       
  37 H37           -7.4032    11.7106     1.9820 H       
  38 H38           -7.6116     8.3791     4.6508 H       
  39 H39           -7.0753     6.8601     2.7897 H       
  40 H40           -8.2821    11.1690     6.4693 H       
  41 H41           -8.8786     9.6842     5.6898 H       
  42 H42           -7.1451     9.8649     6.0511 H       
@<TRIPOS>BOND
   1    1    2 ar
   2    1    6 ar
   3    1    7 1
   4    2    3 ar
   5    2   27 1
   6    3    4 ar
   7    3   28 1
   8    4    5 ar
   9    4   29 1
  10    5    6 ar
  11    5   30 1
  12    7    9 1
  13    8    9 1
  14    8   12 1
  15    9   10 2
  16   10   11 1
  17   11   12 2
  18   11   16 1
  19   12   31 1
  20   13   14 1
  21   13   17 1
  22   13   18 1
  23   14   15 2
  24   15   16 1
  25   15   32 1
  26   16   17 2
  27   17   33 1
  28   18   19 1
  29   18   34 1
  30   18   35 1
  31   19   20 ar
  32   19   24 ar
  33   20   21 ar
  34   20   36 1
  35   21   22 ar
  36   21   37 1
  37   22   23 ar
  38   22   25 1
  39   23   24 ar
  40   23   38 1
  41   24   39 1
  42   25   26 1
  43   26   40 1
  44   26   41 1
  45   26   42 1

#	End of record

