#	Name: ASD06590043
#	Creating user name:	WinNT
#	Creation time:	15. 06. 2019 21:06

#	Modifying user name:	WinNT
#	Modification time:	15. 06. 2019 21:06

#	Program:	/corina/corina34_cracker 3.40 0067  02.08.2006

@<TRIPOS>MOLECULE
ASD06590043
 303  303    0    0    0
SMALL
NO_CHARGES


@<TRIPOS>ATOM
   1 C1            -6.2555     2.3252    12.5236 C.2     
   2 O2            -5.2374     1.7795    12.1541 O.2     
   3 N3            -5.5727     1.7781    14.7906 N.3     
   4 C4            -6.4604     2.6278    13.9856 C.3     
   5 C5            -6.1372     4.0994    14.2520 C.3     
   6 C6            -6.4638     4.4378    15.7079 C.3     
   7 C7            -6.1406     5.9094    15.9742 C.3     
   8 N8            -6.4533     6.2335    17.3683 N.pl3   
   9 C9            -6.2435     7.5067    17.8416 C.2     
  10 N10           -5.6567     8.3924    17.0892 N.2     
  11 N11           -6.6553     7.8466    19.1158 N.am    
  12 C12           -7.8151     3.3365     9.3759 C.2     
  13 O13           -8.4977     4.1785     9.9200 O.2     
  14 N14           -7.2014     2.6659    11.6259 N.am    
  15 C15           -6.9996     2.3771    10.2039 C.3     
  16 C16           -7.4425     0.9431     9.9069 C.3     
  17 O17           -8.8505     0.8255    10.1204 O.3     
  18 C18           -9.9108     3.8091     6.9956 C.2     
  19 O19          -10.2966     2.7578     7.4611 O.2     
  20 N20           -7.7860     3.2587     8.0307 N.am    
  21 C21           -8.4904     4.2582     7.2238 C.3     
  22 C22           -7.7829     4.4166     5.8764 C.3     
  23 C23           -6.3995     4.9716     6.0978 C.2     
  24 O24           -5.9877     5.1374     7.2215 O.2     
  25 O25           -5.6247     5.2819     5.0465 O.3     
  26 C26          -12.6638     4.7729     4.7921 C.2     
  27 O27          -12.0224     5.6354     4.2304 O.2     
  28 N28          -10.7523     4.5759     6.2741 N.am    
  29 C29          -12.1330     4.1394     6.0523 C.3     
  30 C30          -12.9990     4.5635     7.2402 C.3     
  31 C31          -12.4615     3.9185     8.5192 C.3     
  32 O32          -12.9627     5.9859     7.3724 O.3     
  33 C33          -15.8191     4.8465     2.9478 C.2     
  34 O34          -16.4428     4.3987     3.8867 O.2     
  35 N35          -13.8512     4.3809     4.2894 N.am    
  36 C36          -14.3147     4.9130     3.0055 C.3     
  37 C37          -13.7233     4.0815     1.8654 C.3     
  38 C38          -12.2026     4.2488     1.8477 C.3     
  39 C39          -11.6113     3.4173     0.7077 C.3     
  40 N40          -10.1552     3.5776     0.6907 N.pl3   
  41 C41           -9.4022     2.9204    -0.2534 C.2     
  42 N42           -9.9839     2.1547    -1.1334 N.2     
  43 N43           -8.0357     3.0708    -0.2693 N.pl3   
  44 C44          -18.3796     5.1645     0.3582 C.2     
  45 O45          -17.5566     5.1777    -0.5325 O.2     
  46 N46          -16.4715     5.2846     1.8529 N.am    
  47 C47          -17.9340     5.2200     1.7968 C.3     
  48 C48          -18.5255     6.4620     2.4664 C.3     
  49 C49          -18.1768     6.4533     3.9561 C.3     
  50 C50          -18.7594     7.6767     4.6156 C.2     
  51 O51          -19.3912     8.4768     3.9588 O.2     
  52 N52          -18.5782     7.8816     5.9353 N.am    
  53 C53          -21.5292     5.5840    -1.4493 C.2     
  54 O54          -22.1103     5.9739    -0.4587 O.2     
  55 N55          -19.6927     5.1003     0.0615 N.am    
  56 C56          -20.1259     5.0463    -1.3370 C.3     
  57 C57          -20.0946     3.5966    -1.8250 C.3     
  58 C58          -18.6507     3.0907    -1.8287 C.3     
  59 C59          -18.6199     1.6628    -2.3095 C.2     
  60 O60          -19.6513     1.1047    -2.6186 O.2     
  61 N61          -17.4462     1.0060    -2.3958 N.am    
  62 C62          -24.1690     5.5688    -3.9780 C.2     
  63 O63          -23.5639     4.7914    -4.6854 O.2     
  64 N64          -22.1385     5.6317    -2.6505 N.am    
  65 C65          -23.5027     6.1544    -2.7597 C.3     
  66 C66          -23.4562     7.6784    -2.8868 C.3     
  67 C67          -22.9024     8.2717    -1.6170 C.ar    
  68 C68          -21.5407     8.4721    -1.4855 C.ar    
  69 C69          -21.0305     9.0154    -0.3224 C.ar    
  70 C70          -21.8857     9.3604     0.7141 C.ar    
  71 O71          -21.3862     9.8954     1.8592 O.3     
  72 C72          -23.2516     9.1587     0.5795 C.ar    
  73 C73          -23.7574     8.6199    -0.5877 C.ar    
  74 C74          -27.1756     6.2673    -5.9365 C.2     
  75 O75          -27.3905     7.3019    -5.3413 O.2     
  76 N76          -25.4373     5.9090    -4.2814 N.am    
  77 C77          -26.0851     5.3398    -5.4657 C.3     
  78 C78          -26.6898     3.9796    -5.1120 C.3     
  79 C79          -25.5696     3.0010    -4.7537 C.3     
  80 C80          -26.1744     1.6409    -4.4000 C.3     
  81 N81          -25.1017     0.7039    -4.0569 N.pl3   
  82 C82          -25.4058    -0.5892    -3.7025 C.2     
  83 N83          -24.4514    -1.4229    -3.3972 N.2     
  84 N84          -26.7165    -1.0030    -3.6702 N.pl3   
  85 C85          -30.0042     6.0623    -8.2429 C.2     
  86 O86          -29.8677     4.8665    -8.3922 O.2     
  87 N87          -27.9120     5.9470    -7.0189 N.am    
  88 C88          -28.9721     6.8486    -7.4765 C.3     
  89 C89          -28.3710     7.9228    -8.3852 C.3     
  90 C90          -27.4153     8.8003    -7.5744 C.3     
  91 C91          -26.8142     9.8745    -8.4832 C.3     
  92 C92          -25.8585    10.7520    -7.6724 C.3     
  93 N93          -25.2814    11.7834    -8.5449 N.3     
  94 C94          -32.8039     6.7523   -10.4683 C.2     
  95 O95          -32.6418     7.9542   -10.4770 O.2     
  96 N96          -31.0790     6.6879    -8.7625 N.am    
  97 C97          -32.1366     5.9096    -9.4121 C.3     
  98 C98          -33.1720     5.4857    -8.3684 C.3     
  99 C99          -34.1849     4.5362    -9.0113 C.3     
 100 C100         -33.4947     3.2170    -9.3639 C.3     
 101 C101         -35.3270     4.2677    -8.0293 C.3     
 102 C102         -35.4522     6.3540   -12.9373 C.2     
 103 O103         -35.6830     5.1884   -12.6942 O.2     
 104 N104         -33.5809     6.1703   -11.4032 N.am    
 105 C105         -34.1578     6.9767   -12.4817 C.3     
 106 C106         -33.1783     7.0339   -13.6557 C.3     
 107 C107         -33.7138     7.9933   -14.7204 C.3     
 108 C108         -33.7403     9.4160   -14.1579 C.3     
 109 C109         -32.8054     7.9482   -15.9508 C.3     
 110 C110         -37.2836     5.8464   -15.4783 C.2     
 111 O111         -36.1707     5.9212   -15.9546 O.2     
 112 N112         -36.3534     7.0922   -13.6150 N.am    
 113 C113         -37.5713     6.4656   -14.1348 C.3     
 114 C114         -38.6655     7.5244   -14.2851 C.3     
 115 C115         -39.0456     8.0645   -12.9050 C.3     
 116 C116         -40.1397     9.1233   -13.0552 C.3     
 117 C117         -40.5198     9.6634   -11.6751 C.3     
 118 N118         -41.5703    10.6800   -11.8194 N.3     
 119 C119         -39.2596     4.5193   -18.2526 C.2     
 120 O120         -40.2966     4.9181   -17.7778 O.2     
 121 N121         -38.2629     5.2096   -16.1505 N.am    
 122 C122         -37.9831     4.6077   -17.4565 C.3     
 123 C123         -37.4074     3.2040   -17.2583 C.3     
 124 O124         -38.3958     2.3640   -16.6589 O.3     
 125 O125         -39.2445     3.9974   -19.4892 O.3     
 126 C126          -7.3561     6.9643    19.8553 C.2     
 127 O127          -7.5527     5.8435    19.4367 O.2     
 128 C128         -16.9817     2.0177    35.1546 C.3     
 129 C129         -16.4342     1.6049    33.7868 C.3     
 130 C130         -15.6836     2.7824    33.1615 C.3     
 131 C131         -15.1361     2.3697    31.7937 C.3     
 132 C132         -14.3856     3.5471    31.1683 C.3     
 133 C133         -13.8381     3.1344    29.8005 C.3     
 134 C134         -13.0875     4.3119    29.1752 C.3     
 135 C135         -12.5401     3.8991    27.8074 C.3     
 136 C136         -11.7895     5.0766    27.1820 C.3     
 137 C137         -11.2420     4.6639    25.8142 C.3     
 138 C138         -10.4914     5.8414    25.1889 C.3     
 139 C139          -9.9440     5.4286    23.8211 C.3     
 140 C140          -9.1934     6.6061    23.1957 C.3     
 141 C141          -8.6459     6.1934    21.8279 C.3     
 142 C142          -7.8953     7.3708    21.2026 C.3     
 143 H143          -4.6049     1.9440    14.5584 H       
 144 H144          -5.7367     1.9158    15.7766 H       
 145 H145          -7.4974     2.4288    14.2560 H       
 146 H146          -5.0782     4.2783    14.0661 H       
 147 H147          -6.7334     4.7278    13.5903 H       
 148 H148          -7.5228     4.2590    15.8938 H       
 149 H149          -5.8675     3.8094    16.3695 H       
 150 H150          -5.0816     6.0883    15.7884 H       
 151 H151          -6.7368     6.5378    15.3126 H       
 152 H152          -6.8083     5.5495    17.9574 H       
 153 H153          -5.5736     9.3094    17.3942 H       
 154 H154          -6.4401     8.7202    19.4782 H       
 155 H155          -8.0157     3.1023    11.9214 H       
 156 H156          -5.9441     2.4901     9.9564 H       
 157 H157          -7.2105     0.6985     8.8703 H       
 158 H158          -6.9159     0.2557    10.5689 H       
 159 H159          -9.2015    -0.0594     9.9506 H       
 160 H160          -7.2986     2.5410     7.5968 H       
 161 H161          -8.4913     5.2137     7.7483 H       
 162 H162          -7.7108     3.4451     5.3875 H       
 163 H163          -8.3518     5.0996     5.2455 H       
 164 H164          -4.7451     5.6348     5.2383 H       
 165 H165         -10.4437     5.4167     5.9018 H       
 166 H166         -12.1594     3.0543     5.9524 H       
 167 H167         -14.0267     4.2401     7.0744 H       
 168 H168         -11.4229     4.2144     8.6666 H       
 169 H169         -13.0575     4.2478     9.3704 H       
 170 H170         -12.5213     2.8336     8.4319 H       
 171 H171         -13.2898     6.4615     6.5966 H       
 172 H172         -14.3990     3.7465     4.7776 H       
 173 H173         -13.9927     5.9494     2.9042 H       
 174 H174         -13.9715     3.0308     2.0155 H       
 175 H175         -14.1373     4.4205     0.9158 H       
 176 H176         -11.9545     5.2996     1.6977 H       
 177 H177         -11.7887     3.9098     2.7973 H       
 178 H178         -11.8594     2.3666     0.8577 H       
 179 H179         -12.0252     3.7564    -0.2420 H       
 180 H180          -9.7223     4.1474     1.3456 H       
 181 H181          -9.4527     1.6910    -1.7995 H       
 182 H182          -7.6029     3.6406     0.3856 H       
 183 H183          -7.5045     2.6071    -0.9354 H       
 184 H184         -15.9727     5.6428     1.1020 H       
 185 H185         -18.2785     4.3271     2.3185 H       
 186 H186         -18.1119     7.3571     2.0017 H       
 187 H187         -19.6089     6.4582     2.3468 H       
 188 H188         -18.5904     5.5582     4.4208 H       
 189 H189         -17.0934     6.4572     4.0756 H       
 190 H190         -18.0728     7.2417     6.4606 H       
 191 H191         -18.9532     8.6691     6.3598 H       
 192 H192         -20.3510     5.0897     0.7739 H       
 193 H193         -19.4554     5.6501    -1.9485 H       
 194 H194         -20.6952     2.9763    -1.1598 H       
 195 H195         -20.5005     3.5445    -2.8353 H       
 196 H196         -18.0501     3.7111    -2.4940 H       
 197 H197         -18.2448     3.1428    -0.8185 H       
 198 H198         -16.6213     1.4524    -2.1485 H       
 199 H199         -17.4264     0.0869    -2.7052 H       
 200 H200         -21.6737     5.3199    -3.4428 H       
 201 H201         -24.0688     5.8811    -1.8693 H       
 202 H202         -22.8169     7.9538    -3.7255 H       
 203 H203         -24.4631     8.0597    -3.0570 H       
 204 H204         -20.8753     8.2034    -2.2927 H       
 205 H205         -19.9667     9.1711    -0.2198 H       
 206 H206         -21.3280    10.8606     1.8496 H       
 207 H207         -23.9194     9.4261     1.3851 H       
 208 H208         -24.8211     8.4668    -0.6947 H       
 209 H209         -25.9213     6.5308    -3.7156 H       
 210 H210         -25.3474     5.2144    -6.2583 H       
 211 H211         -27.3613     4.0908    -4.2606 H       
 212 H212         -27.2473     3.5965    -5.9668 H       
 213 H213         -24.8982     2.8898    -5.6051 H       
 214 H214         -25.0121     3.3841    -3.8989 H       
 215 H215         -26.8458     1.7521    -3.5486 H       
 216 H216         -26.7318     1.2578    -5.2547 H       
 217 H217         -24.1770     0.9958    -4.0797 H       
 218 H218         -24.6660    -2.3352    -3.1472 H       
 219 H219         -27.4267    -0.3826    -3.8974 H       
 220 H220         -26.9310    -1.9154    -3.4202 H       
 221 H221         -27.7401     5.1195    -7.4949 H       
 222 H222         -29.4425     7.3230    -6.6153 H       
 223 H223         -27.8245     7.4461    -9.1990 H       
 224 H224         -29.1701     8.5396    -8.7965 H       
 225 H225         -27.9617     9.2771    -6.7607 H       
 226 H226         -26.6162     8.1836    -7.1632 H       
 227 H227         -26.2677     9.3978    -9.2970 H       
 228 H228         -27.6133    10.4913    -8.8944 H       
 229 H229         -26.4049    11.2288    -6.8586 H       
 230 H230         -25.0594    10.1353    -7.2611 H       
 231 H231         -24.6460    12.3765    -8.0324 H       
 232 H232         -24.8241    11.3677    -9.3425 H       
 233 H233         -31.1522     7.6535    -8.7064 H       
 234 H234         -31.7032     5.0230    -9.8748 H       
 235 H235         -32.6706     4.9783    -7.5443 H       
 236 H236         -33.6896     6.3677    -7.9910 H       
 237 H237         -34.5845     4.9908    -9.9179 H       
 238 H238         -34.1969     2.5681    -9.8874 H       
 239 H239         -32.6364     3.4161   -10.0055 H       
 240 H240         -33.1593     2.7268    -8.4499 H       
 241 H241         -35.8187     5.2076    -7.7781 H       
 242 H242         -36.0486     3.5912    -8.4873 H       
 243 H243         -34.9274     3.8131    -7.1228 H       
 244 H244         -33.7581     5.2176   -11.3620 H       
 245 H245         -34.3485     7.9865   -12.1182 H       
 246 H246         -32.2090     7.3865   -13.3033 H       
 247 H247         -33.0684     6.0384   -14.0859 H       
 248 H248         -34.7235     7.6955   -15.0031 H       
 249 H249         -32.7220     9.7419   -13.9459 H       
 250 H250         -34.1919    10.0871   -14.8885 H       
 251 H251         -34.3258     9.4324   -13.2387 H       
 252 H252         -32.7865     6.9347   -16.3515 H       
 253 H253         -33.1869     8.6318   -16.7093 H       
 254 H254         -31.7957     8.2460   -15.6681 H       
 255 H255         -36.1956     8.0385   -13.7585 H       
 256 H256         -37.9061     5.6928   -13.4428 H       
 257 H257         -38.2978     8.3412   -14.9062 H       
 258 H258         -39.5418     7.0773   -14.7543 H       
 259 H259         -39.4132     7.2477   -12.2838 H       
 260 H260         -38.1692     8.5116   -12.4358 H       
 261 H261         -39.7720     9.9401   -13.6764 H       
 262 H262         -41.0161     8.6762   -13.5244 H       
 263 H263         -40.8874     8.8466   -11.0540 H       
 264 H264         -39.6434    10.1105   -11.2059 H       
 265 H265         -41.8389    11.0524   -10.9209 H       
 266 H266         -41.2772    11.4169   -12.4432 H       
 267 H267         -39.1529     5.1497   -15.7695 H       
 268 H268         -37.2619     5.2237   -17.9935 H       
 269 H269         -37.1168     2.7908   -18.2242 H       
 270 H270         -36.5339     3.2580   -16.6086 H       
 271 H271         -38.0993     1.4568   -16.5036 H       
 272 H272         -40.0879     3.9618   -19.9610 H       
 273 H273         -16.1558     2.3082    35.8039 H       
 274 H274         -17.6629     2.8600    35.0342 H       
 275 H275         -17.5164     1.1788    35.6001 H       
 276 H276         -15.7530     0.7626    33.9072 H       
 277 H277         -17.2601     1.3144    33.1375 H       
 278 H278         -16.3648     3.6248    33.0410 H       
 279 H279         -14.8578     3.0729    33.8108 H       
 280 H280         -14.4550     1.5273    31.9141 H       
 281 H281         -15.9620     2.0791    31.1443 H       
 282 H282         -15.0668     4.3895    31.0479 H       
 283 H283         -13.5597     3.8377    31.8176 H       
 284 H284         -13.1569     2.2920    29.9209 H       
 285 H285         -14.6640     2.8439    29.1512 H       
 286 H286         -13.7687     5.1543    29.0547 H       
 287 H287         -12.2617     4.6024    29.8245 H       
 288 H288         -11.8589     3.0568    27.9278 H       
 289 H289         -13.3659     3.6086    27.1580 H       
 290 H290         -12.4707     5.9190    27.0616 H       
 291 H291         -10.9636     5.3672    27.8313 H       
 292 H292         -10.5608     3.8215    25.9346 H       
 293 H293         -12.0679     4.3734    25.1649 H       
 294 H294         -11.1726     6.6837    25.0684 H       
 295 H295          -9.6656     6.1319    25.8382 H       
 296 H296          -9.2628     4.5863    23.9415 H       
 297 H297         -10.7698     5.1381    23.1717 H       
 298 H298          -9.8746     7.4485    23.0753 H       
 299 H299          -8.3675     6.8966    23.8450 H       
 300 H300          -7.9647     5.3510    21.9483 H       
 301 H301          -9.4718     5.9028    21.1786 H       
 302 H302          -7.0695     7.6614    21.8519 H       
 303 H303          -8.5765     8.2132    21.0821 H       
@<TRIPOS>BOND
   1    1    2 2
   2    1    4 1
   3    1   14 am
   4    3    4 1
   5    3  143 1
   6    3  144 1
   7    4    5 1
   8    4  145 1
   9    5    6 1
  10    5  146 1
  11    5  147 1
  12    6    7 1
  13    6  148 1
  14    6  149 1
  15    7    8 1
  16    7  150 1
  17    7  151 1
  18    8    9 1
  19    8  152 1
  20    9   10 2
  21    9   11 1
  22   10  153 1
  23   11  126 am
  24   11  154 1
  25   12   13 2
  26   12   15 1
  27   12   20 am
  28   14   15 1
  29   14  155 1
  30   15   16 1
  31   15  156 1
  32   16   17 1
  33   16  157 1
  34   16  158 1
  35   17  159 1
  36   18   19 2
  37   18   21 1
  38   18   28 am
  39   20   21 1
  40   20  160 1
  41   21   22 1
  42   21  161 1
  43   22   23 1
  44   22  162 1
  45   22  163 1
  46   23   24 2
  47   23   25 1
  48   25  164 1
  49   26   27 2
  50   26   29 1
  51   26   35 am
  52   28   29 1
  53   28  165 1
  54   29   30 1
  55   29  166 1
  56   30   31 1
  57   30   32 1
  58   30  167 1
  59   31  168 1
  60   31  169 1
  61   31  170 1
  62   32  171 1
  63   33   34 2
  64   33   36 1
  65   33   46 am
  66   35   36 1
  67   35  172 1
  68   36   37 1
  69   36  173 1
  70   37   38 1
  71   37  174 1
  72   37  175 1
  73   38   39 1
  74   38  176 1
  75   38  177 1
  76   39   40 1
  77   39  178 1
  78   39  179 1
  79   40   41 1
  80   40  180 1
  81   41   42 2
  82   41   43 1
  83   42  181 1
  84   43  182 1
  85   43  183 1
  86   44   45 2
  87   44   47 1
  88   44   55 am
  89   46   47 1
  90   46  184 1
  91   47   48 1
  92   47  185 1
  93   48   49 1
  94   48  186 1
  95   48  187 1
  96   49   50 1
  97   49  188 1
  98   49  189 1
  99   50   51 2
 100   50   52 am
 101   52  190 1
 102   52  191 1
 103   53   54 2
 104   53   56 1
 105   53   64 am
 106   55   56 1
 107   55  192 1
 108   56   57 1
 109   56  193 1
 110   57   58 1
 111   57  194 1
 112   57  195 1
 113   58   59 1
 114   58  196 1
 115   58  197 1
 116   59   60 2
 117   59   61 am
 118   61  198 1
 119   61  199 1
 120   62   63 2
 121   62   65 1
 122   62   76 am
 123   64   65 1
 124   64  200 1
 125   65   66 1
 126   65  201 1
 127   66   67 1
 128   66  202 1
 129   66  203 1
 130   67   68 ar
 131   67   73 ar
 132   68   69 ar
 133   68  204 1
 134   69   70 ar
 135   69  205 1
 136   70   71 1
 137   70   72 ar
 138   71  206 1
 139   72   73 ar
 140   72  207 1
 141   73  208 1
 142   74   75 2
 143   74   77 1
 144   74   87 am
 145   76   77 1
 146   76  209 1
 147   77   78 1
 148   77  210 1
 149   78   79 1
 150   78  211 1
 151   78  212 1
 152   79   80 1
 153   79  213 1
 154   79  214 1
 155   80   81 1
 156   80  215 1
 157   80  216 1
 158   81   82 1
 159   81  217 1
 160   82   83 2
 161   82   84 1
 162   83  218 1
 163   84  219 1
 164   84  220 1
 165   85   86 2
 166   85   88 1
 167   85   96 am
 168   87   88 1
 169   87  221 1
 170   88   89 1
 171   88  222 1
 172   89   90 1
 173   89  223 1
 174   89  224 1
 175   90   91 1
 176   90  225 1
 177   90  226 1
 178   91   92 1
 179   91  227 1
 180   91  228 1
 181   92   93 1
 182   92  229 1
 183   92  230 1
 184   93  231 1
 185   93  232 1
 186   94   95 2
 187   94   97 1
 188   94  104 am
 189   96   97 1
 190   96  233 1
 191   97   98 1
 192   97  234 1
 193   98   99 1
 194   98  235 1
 195   98  236 1
 196   99  100 1
 197   99  101 1
 198   99  237 1
 199  100  238 1
 200  100  239 1
 201  100  240 1
 202  101  241 1
 203  101  242 1
 204  101  243 1
 205  102  103 2
 206  102  105 1
 207  102  112 am
 208  104  105 1
 209  104  244 1
 210  105  106 1
 211  105  245 1
 212  106  107 1
 213  106  246 1
 214  106  247 1
 215  107  108 1
 216  107  109 1
 217  107  248 1
 218  108  249 1
 219  108  250 1
 220  108  251 1
 221  109  252 1
 222  109  253 1
 223  109  254 1
 224  110  111 2
 225  110  113 1
 226  110  121 am
 227  112  113 1
 228  112  255 1
 229  113  114 1
 230  113  256 1
 231  114  115 1
 232  114  257 1
 233  114  258 1
 234  115  116 1
 235  115  259 1
 236  115  260 1
 237  116  117 1
 238  116  261 1
 239  116  262 1
 240  117  118 1
 241  117  263 1
 242  117  264 1
 243  118  265 1
 244  118  266 1
 245  119  120 2
 246  119  122 1
 247  119  125 1
 248  121  122 1
 249  121  267 1
 250  122  123 1
 251  122  268 1
 252  123  124 1
 253  123  269 1
 254  123  270 1
 255  124  271 1
 256  125  272 1
 257  126  127 2
 258  126  142 1
 259  128  129 1
 260  128  273 1
 261  128  274 1
 262  128  275 1
 263  129  130 1
 264  129  276 1
 265  129  277 1
 266  130  131 1
 267  130  278 1
 268  130  279 1
 269  131  132 1
 270  131  280 1
 271  131  281 1
 272  132  133 1
 273  132  282 1
 274  132  283 1
 275  133  134 1
 276  133  284 1
 277  133  285 1
 278  134  135 1
 279  134  286 1
 280  134  287 1
 281  135  136 1
 282  135  288 1
 283  135  289 1
 284  136  137 1
 285  136  290 1
 286  136  291 1
 287  137  138 1
 288  137  292 1
 289  137  293 1
 290  138  139 1
 291  138  294 1
 292  138  295 1
 293  139  140 1
 294  139  296 1
 295  139  297 1
 296  140  141 1
 297  140  298 1
 298  140  299 1
 299  141  142 1
 300  141  300 1
 301  141  301 1
 302  142  302 1
 303  142  303 1

#	End of record

