#	Name: ASD03091227
#	Creating user name:	WinNT
#	Creation time:	15. 06. 2019 20:30

#	Modifying user name:	WinNT
#	Modification time:	15. 06. 2019 20:30

#	Program:	/corina/corina34_cracker 3.40 0067  02.08.2006

@<TRIPOS>MOLECULE
ASD03091227
  51   55    0    0    0
SMALL
NO_CHARGES


@<TRIPOS>ATOM
   1 C1             0.5174     1.4475    -0.0258 C.3     
   2 N2             0.1941     0.0186    -0.0270 N.am    
   3 C3            -0.0050    -0.6350     1.1591 C.2     
   4 N4            -0.2965    -1.9076     1.2326 N.2     
   5 C5            -0.4221    -2.6708     0.1278 C.ar    
   6 C6            -0.2337    -2.0799    -1.1425 C.ar    
   7 C7             0.0884    -0.6462    -1.2012 C.2     
   8 C8             0.1158     0.1337     2.4159 C.ar    
   9 O9             0.2620    -0.0808    -2.2651 O.2     
  10 C10           -0.7336    -4.0314     0.2128 C.ar    
  11 C11           -0.8528    -4.7750    -0.9258 C.ar    
  12 C12           -0.6679    -4.1966    -2.1818 C.ar    
  13 C13           -0.3586    -2.8516    -2.2953 C.ar    
  14 N14           -0.7950    -4.9795    -3.3324 N.3     
  15 C15            0.1123    -4.5125    -4.3900 C.3     
  16 C16            0.6879    -5.6945    -5.1556 C.3     
  17 C17           -0.3113    -6.3537    -6.0847 C.3     
  18 N18           -1.5875    -5.6247    -6.1119 N.3     
  19 C19           -2.3984    -5.9866    -4.9394 C.3     
  20 C20           -2.1830    -4.9918    -3.8095 C.3     
  21 C21           -1.4224    -4.2093    -6.3643 C.3     
  22 C22           -0.6215    -3.5192    -5.2725 C.3     
  23 C23            1.1457     1.0624     2.5729 C.ar    
  24 C24            1.2537     1.7777     3.7479 C.ar    
  25 C25            0.3444     1.5764     4.7704 C.ar    
  26 C26           -0.6811     0.6560     4.6221 C.ar    
  27 C27           -0.8031    -0.0622     3.4481 C.ar    
  28 F28           -1.5658     0.4645     5.6250 F       
  29 H29            1.5970     1.5756     0.0518 H       
  30 H30            0.1632     1.9009    -0.9515 H       
  31 H31            0.0324     1.9290     0.8234 H       
  32 H32           -0.8793    -4.4934     1.1780 H       
  33 H33           -1.0932    -5.8254    -0.8533 H       
  34 H34           -0.2161    -2.4052    -3.2684 H       
  35 H35            0.9379    -3.9818    -3.9159 H       
  36 H36            1.5375    -5.3490    -5.7446 H       
  37 H37            1.0412    -6.4362    -4.4393 H       
  38 H38            0.1041    -6.3817    -7.0921 H       
  39 H39           -0.4916    -7.3743    -5.7470 H       
  40 H40           -3.4520    -5.9901    -5.2187 H       
  41 H41           -2.1143    -6.9827    -4.5999 H       
  42 H42           -2.8394    -5.2529    -2.9794 H       
  43 H43           -2.4436    -3.9942    -4.1630 H       
  44 H44           -0.9086    -4.0776    -7.3166 H       
  45 H45           -2.4063    -3.7446    -6.4283 H       
  46 H46           -1.2990    -2.9297    -4.6548 H       
  47 H47            0.1056    -2.8515    -5.7347 H       
  48 H48            1.8573     1.2207     1.7761 H       
  49 H49            2.0506     2.4964     3.8696 H       
  50 H50            0.4341     2.1385     5.6882 H       
  51 H51           -1.6023    -0.7794     3.3327 H       
@<TRIPOS>BOND
   1    1    2 1
   2    1   29 1
   3    1   30 1
   4    1   31 1
   5    2    3 1
   6    2    7 am
   7    3    4 2
   8    3    8 1
   9    4    5 1
  10    5    6 ar
  11    5   10 ar
  12    6    7 1
  13    6   13 ar
  14    7    9 2
  15    8   23 ar
  16    8   27 ar
  17   10   11 ar
  18   10   32 1
  19   11   12 ar
  20   11   33 1
  21   12   13 ar
  22   12   14 1
  23   13   34 1
  24   14   15 1
  25   14   20 1
  26   15   16 1
  27   15   22 1
  28   15   35 1
  29   16   17 1
  30   16   36 1
  31   16   37 1
  32   17   18 1
  33   17   38 1
  34   17   39 1
  35   18   19 1
  36   18   21 1
  37   19   20 1
  38   19   40 1
  39   19   41 1
  40   20   42 1
  41   20   43 1
  42   21   22 1
  43   21   44 1
  44   21   45 1
  45   22   46 1
  46   22   47 1
  47   23   24 ar
  48   23   48 1
  49   24   25 ar
  50   24   49 1
  51   25   26 ar
  52   25   50 1
  53   26   27 ar
  54   26   28 1
  55   27   51 1

#	End of record

