#	Name: ASD01903024
#	Creating user name:	WinNT
#	Creation time:	15. 06. 2019 19:54

#	Modifying user name:	WinNT
#	Modification time:	15. 06. 2019 19:54

#	Program:	/corina/corina34_cracker 3.40 0067  02.08.2006

@<TRIPOS>MOLECULE
ASD01903024
  37   39    0    0    0
SMALL
NO_CHARGES


@<TRIPOS>ATOM
   1 C1             0.0102     1.3505     0.0028 C.ar    
   2 C2             0.0254    -0.0298     0.0331 C.ar    
   3 C3             1.2332    -0.7116    -0.0072 C.ar    
   4 C4             2.4263    -0.0070    -0.0780 C.ar    
   5 C5             2.4126     1.3733    -0.1088 C.ar    
   6 C6             1.2041     2.0564    -0.0685 C.ar    
   7 N7             1.1894     3.4561    -0.1002 N.am    
   8 C8             2.1060     4.1233    -0.8288 C.2     
   9 O9             2.9966     3.5141    -1.3919 O.2     
  10 C10            2.0304     5.5831    -0.9432 C.2     
  11 O11            1.0999     6.3759    -0.3724 O.3     
  12 C12            1.3456     7.6526    -0.6944 C.2     
  13 C13            2.4433     7.6991    -1.4810 C.2     
  14 C14            2.8928     6.3791    -1.6414 C.2     
  15 C15            0.5318     8.8414    -0.2522 C.3     
  16 O16            1.2474    -2.0707     0.0231 O.3     
  17 C17            0.9325    -2.7376    -1.1182 C.ar    
  18 C18            0.6999    -2.0351    -2.2920 C.ar    
  19 C19            0.3804    -2.7155    -3.4509 C.ar    
  20 C20            0.2924    -4.0954    -3.4420 C.ar    
  21 C21            0.5233    -4.7978    -2.2736 C.ar    
  22 C22            0.8487    -4.1227    -1.1132 C.ar    
  23 H23           -0.9301     1.8811     0.0301 H       
  24 H24           -0.9030    -0.5788     0.0886 H       
  25 H25            3.3661    -0.5384    -0.1087 H       
  26 H26            3.3414     1.9216    -0.1636 H       
  27 H27            0.5194     3.9455     0.4023 H       
  28 H28            2.8929     8.5857    -1.9032 H       
  29 H29            3.7505     6.0551    -2.2122 H       
  30 H30           -0.2936     8.5038     0.3747 H       
  31 H31            1.1642     9.5236     0.3160 H       
  32 H32            0.1361     9.3567    -1.1274 H       
  33 H33            0.7681    -0.9573    -2.2994 H       
  34 H34            0.1988    -2.1692    -4.3647 H       
  35 H35            0.0424    -4.6255    -4.3492 H       
  36 H36            0.4532    -5.8756    -2.2691 H       
  37 H37            1.0294    -4.6718    -0.2010 H       
@<TRIPOS>BOND
   1    1    2 ar
   2    1    6 ar
   3    1   23 1
   4    2    3 ar
   5    2   24 1
   6    3    4 ar
   7    3   16 1
   8    4    5 ar
   9    4   25 1
  10    5    6 ar
  11    5   26 1
  12    6    7 1
  13    7    8 am
  14    7   27 1
  15    8    9 2
  16    8   10 1
  17   10   11 1
  18   10   14 2
  19   11   12 1
  20   12   13 2
  21   12   15 1
  22   13   14 1
  23   13   28 1
  24   14   29 1
  25   15   30 1
  26   15   31 1
  27   15   32 1
  28   16   17 1
  29   17   18 ar
  30   17   22 ar
  31   18   19 ar
  32   18   33 1
  33   19   20 ar
  34   19   34 1
  35   20   21 ar
  36   20   35 1
  37   21   22 ar
  38   21   36 1
  39   22   37 1

#	End of record

