#	Name: ASD01880940
#	Creating user name:	WinNT
#	Creation time:	15. 06. 2019 19:41

#	Modifying user name:	WinNT
#	Modification time:	15. 06. 2019 19:41

#	Program:	/corina/corina34_cracker 3.40 0067  02.08.2006

@<TRIPOS>MOLECULE
ASD01880940
  46   49    0    0    0
SMALL
NO_CHARGES


@<TRIPOS>ATOM
   1 N1             0.0057     1.3279    -0.1717 N.ar    
   2 C2             0.0070     0.0116    -0.1811 C.ar    
   3 N3             1.1146    -0.6851    -0.0187 N.ar    
   4 C4             2.2799    -0.0831     0.1613 C.ar    
   5 C5             2.3297     1.3000     0.1784 C.ar    
   6 C6             1.1375     2.0076     0.0039 C.ar    
   7 C7             3.6357     2.0240     0.3811 C.3     
   8 O8             4.6666     1.0762     0.6655 O.3     
   9 C9             5.9142     1.5673     0.8755 C.ar    
  10 C10            6.9647     0.6988     1.1574 C.ar    
  11 C11            8.2264     1.1956     1.3693 C.ar    
  12 C12            8.4654     2.5726     1.3040 C.ar    
  13 C13            7.4065     3.4417     1.0204 C.ar    
  14 C14            6.1422     2.9356     0.8033 C.ar    
  15 C15            9.5513     0.5484     1.6874 C.3     
  16 N16           10.5256     1.6406     1.7926 N.am    
  17 C17            9.8945     2.8063     1.5706 C.2     
  18 O18           10.4280     3.8988     1.5871 O.2     
  19 Cl19           7.6846     5.1531     0.9359 Cl      
  20 C20            1.1328     3.4902     0.0130 C.ar    
  21 C21            2.1006     4.1947    -0.7034 C.ar    
  22 C22            2.0974     5.5716    -0.6953 C.ar    
  23 C23            1.1241     6.2632     0.0304 C.ar    
  24 C24            0.1550     5.5565     0.7470 C.ar    
  25 C25            0.1570     4.1796     0.7332 C.ar    
  26 C26            1.1201     7.6951     0.0399 C.1     
  27 N27            1.1169     8.8311     0.0475 N.1     
  28 C28           12.7298     1.3165     0.7836 C.3     
  29 C29           11.9517     1.4858     2.0900 C.3     
  30 H30           -0.9260    -0.5128    -0.3256 H       
  31 H31            3.1807    -0.6641     0.2936 H       
  32 H32            3.8893     2.5761    -0.5239 H       
  33 H33            3.5404     2.7186     1.2157 H       
  34 H34            6.7870    -0.3652     1.2096 H       
  35 H35            5.3247     3.6064     0.5840 H       
  36 H36            9.4880     0.0104     2.6333 H       
  37 H37            9.8374    -0.1331     0.8864 H       
  38 H38            2.8528     3.6599    -1.2642 H       
  39 H39            2.8472     6.1168    -1.2493 H       
  40 H40           -0.5976     6.0900     1.3085 H       
  41 H41           -0.5920     3.6331     1.2871 H       
  42 H42           12.3700     0.4316     0.2585 H       
  43 H43           12.5828     2.1958     0.1565 H       
  44 H44           13.7908     1.2013     1.0049 H       
  45 H45           12.3115     2.3707     2.6151 H       
  46 H46           12.0987     0.6064     2.7171 H       
@<TRIPOS>BOND
   1    1    2 ar
   2    1    6 ar
   3    2    3 ar
   4    2   30 1
   5    3    4 ar
   6    4    5 ar
   7    4   31 1
   8    5    6 ar
   9    5    7 1
  10    6   20 1
  11    7    8 1
  12    7   32 1
  13    7   33 1
  14    8    9 1
  15    9   10 ar
  16    9   14 ar
  17   10   11 ar
  18   10   34 1
  19   11   12 ar
  20   11   15 1
  21   12   13 ar
  22   12   17 1
  23   13   14 ar
  24   13   19 1
  25   14   35 1
  26   15   16 1
  27   15   36 1
  28   15   37 1
  29   16   17 am
  30   16   29 1
  31   17   18 2
  32   20   21 ar
  33   20   25 ar
  34   21   22 ar
  35   21   38 1
  36   22   23 ar
  37   22   39 1
  38   23   24 ar
  39   23   26 1
  40   24   25 ar
  41   24   40 1
  42   25   41 1
  43   26   27 3
  44   28   29 1
  45   28   42 1
  46   28   43 1
  47   28   44 1
  48   29   45 1
  49   29   46 1

#	End of record

