#	Name: ASD00910002
#	Creating user name:	WinNT
#	Creation time:	15. 06. 2019 18:53

#	Modifying user name:	WinNT
#	Modification time:	15. 06. 2019 18:53

#	Program:	/corina/corina34_cracker 3.40 0067  02.08.2006

@<TRIPOS>MOLECULE
ASD00910002
  24   23    0    0    0
SMALL
NO_CHARGES


@<TRIPOS>ATOM
   1 N1            -0.0178     1.4648     0.0101 N.3     
   2 C2             0.0021    -0.0041     0.0020 C.3     
   3 C3             0.7074    -0.4901    -1.2379 C.2     
   4 O4             1.4504     0.2491    -1.8392 O.2     
   5 C5             0.7421    -0.5109     1.2415 C.3     
   6 C6            -0.0416    -0.1236     2.4973 C.3     
   7 C7             0.6984    -0.6305     3.7368 C.3     
   8 C8            -0.0853    -0.2432     4.9925 C.3     
   9 N9             0.6252    -0.7298     6.1826 N.3     
  10 O10            0.5104    -1.7441    -1.6742 O.3     
  11 H11            0.9191     1.8392     0.0032 H       
  12 H12           -0.5563     1.8234    -0.7642 H       
  13 H13           -1.0205    -0.3814     0.0098 H       
  14 H14            0.8346    -1.5958     1.1912 H       
  15 H15            1.7350    -0.0630     1.2804 H       
  16 H16           -0.1341     0.9613     2.5476 H       
  17 H17           -1.0345    -0.5716     2.4584 H       
  18 H18            0.7909    -1.7154     3.6864 H       
  19 H19            1.6914    -0.1825     3.7756 H       
  20 H20           -0.1778     0.8417     5.0429 H       
  21 H21           -1.0782    -0.6911     4.9536 H       
  22 H22            1.5712    -0.3796     6.2074 H       
  23 H23            0.1273    -0.4864     7.0257 H       
  24 H24            0.9846    -2.0103    -2.4737 H       
@<TRIPOS>BOND
   1    1    2 1
   2    1   11 1
   3    1   12 1
   4    2    3 1
   5    2    5 1
   6    2   13 1
   7    3    4 2
   8    3   10 1
   9    5    6 1
  10    5   14 1
  11    5   15 1
  12    6    7 1
  13    6   16 1
  14    6   17 1
  15    7    8 1
  16    7   18 1
  17    7   19 1
  18    8    9 1
  19    8   20 1
  20    8   21 1
  21    9   22 1
  22    9   23 1
  23   10   24 1

#	End of record

