#	Name: ASD07300572
#	Creating user name:	WinNT
#	Creation time:	15. 06. 2019 21:10

#	Modifying user name:	WinNT
#	Modification time:	15. 06. 2019 21:10

#	Program:	/corina/corina34_cracker 3.40 0067  02.08.2006

@<TRIPOS>MOLECULE
ASD07300572
  51   55    0    0    0
SMALL
NO_CHARGES


@<TRIPOS>ATOM
   1 C1            -0.0173     1.4133    -0.0101 C.2     
   2 C2             0.0021    -0.0041     0.0020 C.2     
   3 N3             1.1763     2.0865    -0.0173 N.pl3   
   4 N4             1.1569    -0.6390     0.0061 N.2     
   5 C5             2.3148     0.0278    -0.0010 C.2     
   6 C6             2.3463     1.3763    -0.0123 C.2     
   7 N7            -0.9998     2.3007    -0.0113 N.2     
   8 C8            -0.4910     3.5279    -0.0248 C.2     
   9 C9             0.8847     3.4244    -0.0280 C.2     
  10 C10            2.6183     6.6547    -0.8713 C.ar    
  11 C11            1.6830     5.6297    -0.8957 C.ar    
  12 C12            1.8534     4.5386    -0.0386 C.ar    
  13 C13            2.9695     4.5309     0.8117 C.ar    
  14 C14            3.8497     5.5885     0.7725 C.ar    
  15 N15            3.6574     6.6038    -0.0505 N.ar    
  16 N16            2.4665     7.7444    -1.7217 N.3     
  17 C17            3.5616     8.7144    -1.5381 C.3     
  18 C18            4.2361     8.9079    -2.9125 C.3     
  19 C19            3.1298     8.4723    -3.9092 C.3     
  20 C20            2.4505     7.3145    -3.1361 C.3     
  21 N21           -1.1861    -0.7177     0.0100 N.pl3   
  22 C22           -1.1896    -2.1845    -0.1073 C.3     
  23 C23           -2.0522    -2.7579     1.0227 C.3     
  24 O24           -3.3301    -2.1171     1.0109 O.3     
  25 C25           -3.2811    -0.7092     1.2547 C.3     
  26 C26           -2.4811    -0.0314     0.1422 C.3     
  27 C27           -1.2804     4.8116    -0.0312 C.3     
  28 H28            3.2435    -0.5235     0.0030 H       
  29 H29            3.2936     1.8949    -0.0178 H       
  30 H30            0.8370     5.6745    -1.5656 H       
  31 H31            3.1357     3.7059     1.4885 H       
  32 H32            4.7106     5.5883     1.4245 H       
  33 H33            3.1603     9.6643    -1.1850 H       
  34 H34            4.2851     8.3257    -0.8215 H       
  35 H35            4.5039     9.9532    -3.0667 H       
  36 H36            5.1127     8.2666    -3.0054 H       
  37 H37            2.4270     9.2851    -4.0920 H       
  38 H38            3.5641     8.1162    -4.8434 H       
  39 H39            3.0179     6.3920    -3.2588 H       
  40 H40            1.4251     7.1789    -3.4800 H       
  41 H41           -1.6073    -2.4747    -1.0714 H       
  42 H42           -0.1709    -2.5622    -0.0194 H       
  43 H43           -2.1812    -3.8300     0.8742 H       
  44 H44           -1.5638    -2.5785     1.9805 H       
  45 H45           -4.2942    -0.3074     1.2730 H       
  46 H46           -2.7971    -0.5224     2.2133 H       
  47 H47           -2.3172     1.0161     0.3953 H       
  48 H48           -3.0310    -0.1011    -0.7963 H       
  49 H49           -1.4644     5.1302     0.9949 H       
  50 H50           -0.7157     5.5827    -0.5553 H       
  51 H51           -2.2319     4.6505    -0.5378 H       
@<TRIPOS>BOND
   1    1    2 1
   2    1    3 1
   3    1    7 2
   4    2    4 2
   5    2   21 1
   6    3    6 1
   7    3    9 1
   8    4    5 1
   9    5    6 2
  10    5   28 1
  11    6   29 1
  12    7    8 1
  13    8    9 2
  14    8   27 1
  15    9   12 1
  16   10   11 ar
  17   10   15 ar
  18   10   16 1
  19   11   12 ar
  20   11   30 1
  21   12   13 ar
  22   13   14 ar
  23   13   31 1
  24   14   15 ar
  25   14   32 1
  26   16   17 1
  27   16   20 1
  28   17   18 1
  29   17   33 1
  30   17   34 1
  31   18   19 1
  32   18   35 1
  33   18   36 1
  34   19   20 1
  35   19   37 1
  36   19   38 1
  37   20   39 1
  38   20   40 1
  39   21   22 1
  40   21   26 1
  41   22   23 1
  42   22   41 1
  43   22   42 1
  44   23   24 1
  45   23   43 1
  46   23   44 1
  47   24   25 1
  48   25   26 1
  49   25   45 1
  50   25   46 1
  51   26   47 1
  52   26   48 1
  53   27   49 1
  54   27   50 1
  55   27   51 1

#	End of record

