#	Name: ASD01811594
#	Creating user name:	WinNT
#	Creation time:	15. 06. 2019 19:27

#	Modifying user name:	WinNT
#	Modification time:	15. 06. 2019 19:27

#	Program:	/corina/corina34_cracker 3.40 0067  02.08.2006

@<TRIPOS>MOLECULE
ASD01811594
  63   67    0    0    0
SMALL
NO_CHARGES


@<TRIPOS>ATOM
   1 C1             0.0141     1.3851     0.0821 C.ar    
   2 C2             0.0263    -0.0110     0.0590 C.ar    
   3 C3            -1.1615    -0.7146     0.0343 C.ar    
   4 C4            -2.3685    -0.0438     0.0322 C.ar    
   5 C5            -2.3948     1.3522     0.0552 C.ar    
   6 C6            -1.1994     2.0680     0.0855 C.ar    
   7 C7            -3.6880     2.0691     0.0529 C.2     
   8 O8            -4.5230     1.8191     0.9000 O.2     
   9 N9            -3.9408     2.9999    -0.8885 N.am    
  10 C10           -5.2543     3.6543    -0.9604 C.3     
  11 C11           -5.8033     3.5033    -2.3826 C.3     
  12 C12           -4.7768     4.0427    -3.3813 C.3     
  13 C13           -3.4833     3.2318    -3.2742 C.3     
  14 C14           -2.9063     3.3838    -1.8586 C.3     
  15 C15           -5.3276     3.9270    -4.7792 C.ar    
  16 C16           -4.7291     4.6225    -5.8149 C.ar    
  17 F17           -4.5098     5.3859    -3.0955 F       
  18 C18           -6.4259     3.1213    -5.0222 C.ar    
  19 C19           -6.9349     3.0104    -6.2995 C.ar    
  20 C20           -6.3392     3.7136    -7.3484 C.ar    
  21 C21           -5.2279     4.5208    -7.0971 C.ar    
  22 C22           -6.8623     3.6033    -8.6769 C.1     
  23 N23           -7.2773     3.5158    -9.7308 N.1     
  24 C24            1.2880     2.1372     0.1091 C.2     
  25 N25            2.4985     1.6251     0.1139 N.2     
  26 N26            3.3693     2.5703     0.1392 N.2     
  27 C27            2.7703     3.7309     0.1519 C.2     
  28 N28            1.4297     3.4983     0.1278 N.pl3   
  29 C29            3.4409     5.0802     0.1818 C.3     
  30 O30            2.4463     6.1063     0.1885 O.3     
  31 C31            2.9792     7.4320     0.2165 C.3     
  32 C32           -3.6600    -0.8199     0.0047 C.3     
  33 C33            1.3388    -0.7515     0.0606 C.3     
  34 C34            1.6083    -1.7091     1.2231 C.3     
  35 C35            1.2970    -2.2637    -0.1685 C.3     
  36 H36           -1.1465    -1.7943     0.0161 H       
  37 H37           -1.2141     3.1477     0.1033 H       
  38 H38           -5.9368     3.1827    -0.2533 H       
  39 H39           -5.1491     4.7122    -0.7197 H       
  40 H40           -5.9933     2.4501    -2.5893 H       
  41 H41           -6.7321     4.0661    -2.4757 H       
  42 H42           -3.6952     2.1811    -3.4724 H       
  43 H43           -2.7609     3.6014    -4.0019 H       
  44 H44           -2.6099     4.4197    -1.6940 H       
  45 H45           -2.0404     2.7314    -1.7449 H       
  46 H46           -3.8698     5.2467    -5.6190 H       
  47 H47           -6.8854     2.5777    -4.2099 H       
  48 H48           -7.7921     2.3809    -6.4878 H       
  49 H49           -4.7625     5.0676    -7.9038 H       
  50 H50            0.7208     4.1604     0.1294 H       
  51 H51            4.0532     5.1618     1.0798 H       
  52 H52            4.0721     5.1918    -0.6998 H       
  53 H53            3.5819     7.5624     1.1153 H       
  54 H54            3.6008     7.5924    -0.6643 H       
  55 H55            2.1611     8.1523     0.2200 H       
  56 H56           -3.9374    -1.0999     1.0209 H       
  57 H57           -4.4460    -0.2019    -0.4293 H       
  58 H58           -3.5307    -1.7192    -0.5975 H       
  59 H59            2.1882    -0.2036    -0.3474 H       
  60 H60            2.6350    -1.7915     1.5796 H       
  61 H61            0.8362    -1.8034     1.9867 H       
  62 H62            0.3202    -2.7229    -0.3203 H       
  63 H63            2.1190    -2.7109    -0.7274 H       
@<TRIPOS>BOND
   1    1    2 ar
   2    1   24 1
   3    1    6 ar
   4    2    3 ar
   5    2   33 1
   6    3    4 ar
   7    3   36 1
   8    4    5 ar
   9    4   32 1
  10    5    6 ar
  11    5    7 1
  12    6   37 1
  13    7    8 2
  14    7    9 am
  15    9   10 1
  16    9   14 1
  17   10   11 1
  18   10   38 1
  19   10   39 1
  20   11   12 1
  21   11   40 1
  22   11   41 1
  23   12   13 1
  24   12   15 1
  25   12   17 1
  26   13   14 1
  27   13   42 1
  28   13   43 1
  29   14   44 1
  30   14   45 1
  31   15   16 ar
  32   15   18 ar
  33   16   21 ar
  34   16   46 1
  35   18   19 ar
  36   18   47 1
  37   19   20 ar
  38   19   48 1
  39   20   21 ar
  40   20   22 1
  41   21   49 1
  42   22   23 3
  43   24   25 2
  44   24   28 1
  45   25   26 1
  46   26   27 2
  47   27   28 1
  48   27   29 1
  49   28   50 1
  50   29   30 1
  51   29   51 1
  52   29   52 1
  53   30   31 1
  54   31   53 1
  55   31   54 1
  56   31   55 1
  57   32   56 1
  58   32   57 1
  59   32   58 1
  60   33   34 1
  61   33   35 1
  62   33   59 1
  63   34   35 1
  64   34   60 1
  65   34   61 1
  66   35   62 1
  67   35   63 1

#	End of record

