#	Name: ASD03331218
#	Creating user name:	WinNT
#	Creation time:	15. 06. 2019 20:38

#	Modifying user name:	WinNT
#	Modification time:	15. 06. 2019 20:38

#	Program:	/corina/corina34_cracker 3.40 0067  02.08.2006

@<TRIPOS>MOLECULE
ASD03331218
  46   48    0    0    0
SMALL
NO_CHARGES


@<TRIPOS>ATOM
   1 N1            -0.0459     1.4956     0.5698 N.am    
   2 C2             0.0019     0.1506     1.1632 C.3     
   3 C3             0.5966    -0.8151     0.1327 C.3     
   4 N4             1.8894    -0.2950    -0.3322 N.3     
   5 C5             1.7288     0.9911    -1.0237 C.3     
   6 C6             1.1805     2.0309    -0.0406 C.3     
   7 C7            -1.1849     2.2161     0.5803 C.2     
   8 O8            -2.2139     1.7207     0.9974 O.2     
   9 N9            -1.1831     3.4859     0.1284 N.am    
  10 C10           -2.3851     4.1963     0.0330 C.ar    
  11 C11           -2.4015     5.5681     0.2481 C.ar    
  12 C12           -3.5892     6.2664     0.1527 C.ar    
  13 C13           -4.7613     5.6010    -0.1566 C.ar    
  14 C14           -4.7483     4.2350    -0.3714 C.ar    
  15 C15           -3.5629     3.5318    -0.2826 C.ar    
  16 C16            2.5723    -1.2724    -1.1902 C.3     
  17 C17            3.7648    -0.6215    -1.8425 C.ar    
  18 C18            4.9975    -0.6546    -1.2179 C.ar    
  19 C19            6.0920    -0.0575    -1.8152 C.ar    
  20 C20            5.9539     0.5729    -3.0382 C.ar    
  21 C21            4.7195     0.6057    -3.6640 C.ar    
  22 C22            3.6267     0.0035    -3.0679 C.ar    
  23 Br23           4.5292     1.4679    -5.3361 Br      
  24 Br24           7.4506     1.3904    -3.8553 Br      
  25 C25           -6.0556     6.3660    -0.2594 C.3     
  26 H26            0.6285     0.1659     2.0549 H       
  27 H27           -1.0063    -0.1697     1.4260 H       
  28 H28            0.7419    -1.7929     0.5920 H       
  29 H29           -0.0837    -0.9080    -0.7138 H       
  30 H30            2.6951     1.3233    -1.4030 H       
  31 H31            1.0326     0.8731    -1.8541 H       
  32 H32            0.9515     2.9537    -0.5736 H       
  33 H33            1.9203     2.2269     0.7355 H       
  34 H34           -0.3488     3.9073    -0.1307 H       
  35 H35           -1.4865     6.0883     0.4900 H       
  36 H36           -3.6027     7.3332     0.3202 H       
  37 H37           -5.6653     3.7181    -0.6128 H       
  38 H38           -3.5526     2.4657    -0.4549 H       
  39 H39            2.9044    -2.1167    -0.5862 H       
  40 H40            1.8845    -1.6240    -1.9592 H       
  41 H41            5.1055    -1.1469    -0.2627 H       
  42 H42            7.0547    -0.0830    -1.3265 H       
  43 H43            2.6634     0.0287    -3.5556 H       
  44 H44           -6.1941     6.7097    -1.2845 H       
  45 H45           -6.8848     5.7165     0.0212 H       
  46 H46           -6.0241     7.2251     0.4107 H       
@<TRIPOS>BOND
   1    1    2 1
   2    1    6 1
   3    1    7 am
   4    2    3 1
   5    2   26 1
   6    2   27 1
   7    3    4 1
   8    3   28 1
   9    3   29 1
  10    4    5 1
  11    4   16 1
  12    5    6 1
  13    5   30 1
  14    5   31 1
  15    6   32 1
  16    6   33 1
  17    7    8 2
  18    7    9 am
  19    9   10 1
  20    9   34 1
  21   10   11 ar
  22   10   15 ar
  23   11   12 ar
  24   11   35 1
  25   12   13 ar
  26   12   36 1
  27   13   14 ar
  28   13   25 1
  29   14   15 ar
  30   14   37 1
  31   15   38 1
  32   16   17 1
  33   16   39 1
  34   16   40 1
  35   17   18 ar
  36   17   22 ar
  37   18   19 ar
  38   18   41 1
  39   19   20 ar
  40   19   42 1
  41   20   21 ar
  42   20   24 1
  43   21   22 ar
  44   21   23 1
  45   22   43 1
  46   25   44 1
  47   25   45 1
  48   25   46 1

#	End of record

