#	Name: ASD03330905
#	Creating user name:	WinNT
#	Creation time:	15. 06. 2019 20:38

#	Modifying user name:	WinNT
#	Modification time:	15. 06. 2019 20:38

#	Program:	/corina/corina34_cracker 3.40 0067  02.08.2006

@<TRIPOS>MOLECULE
ASD03330905
  59   61    0    0    0
SMALL
NO_CHARGES


@<TRIPOS>ATOM
   1 N1             0.1617     0.9787    -0.0240 N.pl3   
   2 C2             0.0492    -0.3590     0.1918 C.2     
   3 C3             1.1748    -1.2838     0.5752 C.3     
   4 N4             1.9442    -0.6777     1.6731 N.3     
   5 C5             3.0169     0.1767     1.1603 C.3     
   6 C6             2.5976     0.8588    -0.1388 C.3     
   7 C7             1.3904     1.7650     0.1177 C.3     
   8 C8            -1.0721     1.4403    -0.3798 C.2     
   9 N9            -1.9154     0.4347    -0.3670 N.2     
  10 C10           -1.2552    -0.6904    -0.0152 C.2     
  11 C11           -1.8417    -2.0354     0.1199 C.2     
  12 O12           -1.1406    -2.9748     0.4443 O.2     
  13 N13           -3.1551    -2.2247    -0.1161 N.am    
  14 C14            2.4772    -1.7084     2.5740 C.3     
  15 C15           -4.9715    -3.6609    -0.8423 C.2     
  16 C16           -3.7382    -3.5619     0.0182 C.3     
  17 C17           -4.1151    -3.8095     1.4802 C.3     
  18 C18           -5.1858    -2.8038     1.9082 C.3     
  19 O19           -5.6092    -2.6633    -1.1049 O.2     
  20 N20           -5.3657    -4.8579    -1.3199 N.am    
  21 C21           -6.6220    -4.9717    -2.0648 C.3     
  22 C22           -4.6605    -5.2309     1.6326 C.3     
  23 C23           -2.8760    -3.6414     2.3618 C.3     
  24 C24           -2.1809     3.1320    -1.8478 C.ar    
  25 C25           -1.4039     2.8403    -0.7224 C.ar    
  26 C26           -0.9463     3.8946     0.0738 C.ar    
  27 C27           -1.2851     5.1880    -0.2900 C.ar    
  28 C28           -2.0580     5.3943    -1.4186 C.ar    
  29 N29           -2.4771     4.3804    -2.1522 N.ar    
  30 F30           -2.6274     2.1269    -2.6324 F       
  31 Cl31          -0.7455     6.5361     0.6614 Cl      
  32 H32            0.7657    -2.2399     0.9015 H       
  33 H33            1.8270    -1.4396    -0.2841 H       
  34 H34            3.2550     0.9375     1.9036 H       
  35 H35            3.9021    -0.4319     0.9757 H       
  36 H36            3.4261     1.4574    -0.5175 H       
  37 H37            2.3320     0.1015    -0.8764 H       
  38 H38            1.3867     2.5805    -0.6056 H       
  39 H39            1.4482     2.1721     1.1272 H       
  40 H40           -3.7143    -1.4755    -0.3748 H       
  41 H41            3.0762    -2.4167     2.0016 H       
  42 H42            3.0994    -1.2386     3.3357 H       
  43 H43            1.6515    -2.2346     3.0530 H       
  44 H44           -3.0115    -4.3089    -0.3012 H       
  45 H45           -6.0685    -2.9236     1.2801 H       
  46 H46           -5.4543    -2.9802     2.9497 H       
  47 H47           -4.7972    -1.7912     1.7996 H       
  48 H48           -4.8176    -5.6441    -1.1703 H       
  49 H49           -7.4503    -4.6554    -1.4308 H       
  50 H50           -6.5785    -4.3365    -2.9496 H       
  51 H51           -6.7718    -6.0078    -2.3684 H       
  52 H52           -3.8767    -5.9487     1.3908 H       
  53 H53           -4.9902    -5.3853     2.6600 H       
  54 H54           -5.5031    -5.3712     0.9556 H       
  55 H55           -2.4875    -2.6288     2.2532 H       
  56 H56           -3.1446    -3.8178     3.4034 H       
  57 H57           -2.1133    -4.3579     2.0569 H       
  58 H58           -0.3443     3.7056     0.9504 H       
  59 H59           -2.3232     6.4016    -1.7039 H       
@<TRIPOS>BOND
   1    1    2 1
   2    1    7 1
   3    1    8 1
   4    2    3 1
   5    2   10 2
   6    3    4 1
   7    3   32 1
   8    3   33 1
   9    4    5 1
  10    4   14 1
  11    5    6 1
  12    5   34 1
  13    5   35 1
  14    6    7 1
  15    6   36 1
  16    6   37 1
  17    7   38 1
  18    7   39 1
  19    8    9 2
  20    8   25 1
  21    9   10 1
  22   10   11 1
  23   11   12 2
  24   11   13 am
  25   13   16 1
  26   13   40 1
  27   14   41 1
  28   14   42 1
  29   14   43 1
  30   15   19 2
  31   15   20 am
  32   15   16 1
  33   16   17 1
  34   16   44 1
  35   17   18 1
  36   17   22 1
  37   17   23 1
  38   18   45 1
  39   18   46 1
  40   18   47 1
  41   20   21 1
  42   20   48 1
  43   21   49 1
  44   21   50 1
  45   21   51 1
  46   22   52 1
  47   22   53 1
  48   22   54 1
  49   23   55 1
  50   23   56 1
  51   23   57 1
  52   24   25 ar
  53   24   29 ar
  54   24   30 1
  55   25   26 ar
  56   26   27 ar
  57   26   58 1
  58   27   28 ar
  59   27   31 1
  60   28   29 ar
  61   28   59 1

#	End of record

