#	Name: ASD01912952
#	Creating user name:	WinNT
#	Creation time:	15. 06. 2019 20:00

#	Modifying user name:	WinNT
#	Modification time:	15. 06. 2019 20:00

#	Program:	/corina/corina34_cracker 3.40 0067  02.08.2006

@<TRIPOS>MOLECULE
ASD01912952
  27   29    0    0    0
SMALL
NO_CHARGES


@<TRIPOS>ATOM
   1 C1            -0.0173     1.4278     0.0099 C.2     
   2 C2             0.0021    -0.0041     0.0020 C.1     
   3 C3             0.0180    -1.1779    -0.0044 C.1     
   4 C4             0.0374    -2.6098    -0.0123 C.ar    
   5 C5            -1.1565    -3.3375    -0.0048 C.ar    
   6 C6             1.2539    -3.3066    -0.0335 C.ar    
   7 C7             1.2167    -4.6894    -0.0402 C.ar    
   8 C8            -0.0070    -5.3347    -0.0260 C.ar    
   9 N9            -1.1373    -4.6538    -0.0116 N.ar    
  10 N10            1.0415     2.1986     0.0039 N.2     
  11 C11            0.8594     3.4897     0.0116 C.2     
  12 C12           -0.4743     3.8657     0.0266 C.2     
  13 S13           -1.4699     2.4259     0.0214 S.3     
  14 C14            1.9378     4.5631     0.0035 C.3     
  15 C15            1.3985     5.7949    -0.7198 C.3     
  16 N16            0.0738     6.1865    -0.2567 N.am    
  17 C17           -0.8821     5.2749     0.0399 C.2     
  18 O18           -2.0227     5.6077     0.3042 O.2     
  19 H19           -2.1020    -2.8156     0.0070 H       
  20 H20            2.1953    -2.7776    -0.0446 H       
  21 H21            2.1338    -5.2596    -0.0568 H       
  22 H22           -0.0378    -6.4142    -0.0316 H       
  23 H23            2.1992     4.8264     1.0284 H       
  24 H24            2.8202     4.1908    -0.5169 H       
  25 H25            2.0864     6.6253    -0.5606 H       
  26 H26            1.3489     5.5820    -1.7876 H       
  27 H27           -0.1296     7.1298    -0.1577 H       
@<TRIPOS>BOND
   1    1    2 1
   2    1   10 2
   3    1   13 1
   4    2    3 3
   5    3    4 1
   6    4    5 ar
   7    4    6 ar
   8    5    9 ar
   9    5   19 1
  10    6    7 ar
  11    6   20 1
  12    7    8 ar
  13    7   21 1
  14    8    9 ar
  15    8   22 1
  16   10   11 1
  17   11   12 2
  18   11   14 1
  19   12   13 1
  20   12   17 1
  21   14   15 1
  22   14   23 1
  23   14   24 1
  24   15   16 1
  25   15   25 1
  26   15   26 1
  27   16   17 am
  28   16   27 1
  29   17   18 2

#	End of record

