#	Name: ASD01208098
#	Creating user name:	WinNT
#	Creation time:	15. 06. 2019 19:09

#	Modifying user name:	WinNT
#	Modification time:	15. 06. 2019 19:09

#	Program:	/corina/corina34_cracker 3.40 0067  02.08.2006

@<TRIPOS>MOLECULE
ASD01208098
  54   57    0    0    0
SMALL
NO_CHARGES


@<TRIPOS>ATOM
   1 C1            -0.0652     1.4579    -0.0024 C.ar    
   2 C2             0.0529     0.0760    -0.0344 C.ar    
   3 C3            -1.0814    -0.7227     0.0104 C.ar    
   4 C4            -2.3365    -0.1426     0.0877 C.ar    
   5 C5            -2.4598     1.2474     0.1206 C.ar    
   6 C6            -1.3164     2.0464     0.0806 C.ar    
   7 C7            -3.7970     1.8709     0.2030 C.2     
   8 C8            -4.0518     3.2119     0.2414 C.2     
   9 N9            -4.9913     1.2018     0.2478 N.pl3   
  10 C10           -6.0059     2.1256     0.3209 C.2     
  11 C11           -5.4364     3.3807     0.3178 C.2     
  12 O12            1.0486     2.2353    -0.0469 O.3     
  13 C13            0.8508     3.6475    -0.1407 C.3     
  14 C14            2.0792     4.2928    -0.7853 C.3     
  15 O15            3.2102     4.1255     0.0719 O.3     
  16 C16            0.6458     4.2278     1.2601 C.3     
  17 O17           -0.9601    -2.0758    -0.0221 O.3     
  18 C18           -1.4254    -2.7310    -1.1153 C.ar    
  19 C19           -1.4250    -4.1218    -1.1472 C.ar    
  20 N20           -1.8862    -2.0475    -2.1530 N.ar    
  21 C21           -2.3390    -2.6888    -3.2170 C.ar    
  22 C22           -2.3321    -4.0704    -3.2481 C.ar    
  23 N23           -1.8782    -4.7558    -2.2122 N.ar    
  24 C24           -7.4439     1.8281     0.3868 C.2     
  25 N25           -7.9951     0.6334     0.3871 N.2     
  26 N26           -9.2739     0.7571     0.4546 N.2     
  27 C27           -9.5890     2.0212     0.4997 C.2     
  28 O28           -8.4455     2.7289     0.4641 O.3     
  29 S29           -2.9369    -4.9207    -4.6679 S.o2    
  30 C30           -1.4815    -5.1153    -5.7331 C.3     
  31 O31           -3.3606    -6.1813    -4.1674 O.2     
  32 O32           -3.8637    -4.0147    -5.2506 O.2     
  33 C33          -10.9830     2.5877     0.5833 C.3     
  34 H34            1.0302    -0.3796    -0.0947 H       
  35 H35           -3.2186    -0.7648     0.1221 H       
  36 H36           -1.4073     3.1223     0.1062 H       
  37 H37           -3.3147     4.0009     0.2173 H       
  38 H38           -5.1022     0.2384     0.2306 H       
  39 H39           -5.9638     4.3219     0.3658 H       
  40 H40           -0.0291     3.8514    -0.7508 H       
  41 H41            2.2777     3.8170    -1.7457 H       
  42 H42            1.8931     5.3559    -0.9381 H       
  43 H43            4.0266     4.5113    -0.2744 H       
  44 H44            1.5257     4.0239     1.8702 H       
  45 H45            0.4950     5.3050     1.1886 H       
  46 H46           -0.2293     3.7681     1.7193 H       
  47 H47           -1.0539    -4.6820    -0.3017 H       
  48 H48           -2.7150    -2.1322    -4.0627 H       
  49 H49           -0.7207    -5.6918    -5.2070 H       
  50 H50           -1.7668    -5.6380    -6.6461 H       
  51 H51           -1.0827    -4.1330    -5.9863 H       
  52 H52          -11.2670     2.7010     1.6295 H       
  53 H53          -11.0100     3.5603     0.0920 H       
  54 H54          -11.6802     1.9114     0.0887 H       
@<TRIPOS>BOND
   1    1    2 ar
   2    1   12 1
   3    1    6 ar
   4    2    3 ar
   5    2   34 1
   6    3    4 ar
   7    3   17 1
   8    4    5 ar
   9    4   35 1
  10    5    6 ar
  11    5    7 1
  12    6   36 1
  13    7    8 2
  14    7    9 1
  15    8   11 1
  16    8   37 1
  17    9   10 1
  18    9   38 1
  19   10   11 2
  20   10   24 1
  21   11   39 1
  22   12   13 1
  23   13   14 1
  24   13   16 1
  25   13   40 1
  26   14   15 1
  27   14   41 1
  28   14   42 1
  29   15   43 1
  30   16   44 1
  31   16   45 1
  32   16   46 1
  33   17   18 1
  34   18   19 ar
  35   18   20 ar
  36   19   23 ar
  37   19   47 1
  38   20   21 ar
  39   21   22 ar
  40   21   48 1
  41   22   23 ar
  42   22   29 1
  43   24   25 2
  44   24   28 1
  45   25   26 1
  46   26   27 2
  47   27   28 1
  48   27   33 1
  49   29   30 1
  50   29   31 2
  51   29   32 2
  52   30   49 1
  53   30   50 1
  54   30   51 1
  55   33   52 1
  56   33   53 1
  57   33   54 1

#	End of record

