#	Name: ASD01900944
#	Creating user name:	WinNT
#	Creation time:	15. 06. 2019 19:52

#	Modifying user name:	WinNT
#	Modification time:	15. 06. 2019 19:52

#	Program:	/corina/corina34_cracker 3.40 0067  02.08.2006

@<TRIPOS>MOLECULE
ASD01900944
  46   48    0    0    0
SMALL
NO_CHARGES


@<TRIPOS>ATOM
   1 C1            -0.0401     1.3638     0.0421 C.ar    
   2 C2             0.0144     0.0195    -0.3204 C.ar    
   3 C3             1.2164    -0.6604    -0.2052 C.ar    
   4 C4             2.3226     0.0277     0.2688 C.ar    
   5 C5             2.1959     1.3644     0.6109 C.ar    
   6 N6             1.0429     1.9858     0.4917 N.ar    
   7 C7            -1.3156     2.1065    -0.0810 C.2     
   8 O8            -2.3090     1.5433    -0.4967 O.2     
   9 N9            -1.3746     3.4069     0.2682 N.am    
  10 S10           -4.0401     3.4385    -0.4145 S.3     
  11 C11           -2.5707     4.1033     0.1528 C.2     
  12 N12           -2.7356     5.3520     0.4602 N.2     
  13 C13           -3.9435     5.8550     0.2882 C.2     
  14 C14           -4.8422     4.9905    -0.1871 C.2     
  15 C15           -4.2809     7.2895     0.6036 C.3     
  16 C16           -3.8419     7.6143     2.0328 C.3     
  17 C17           -3.5523     8.2120    -0.3758 C.3     
  18 S18           -6.5353     5.3401    -0.5278 S.o2    
  19 O19           -6.5329     6.6925    -0.9641 O.2     
  20 O20           -6.9420     4.2910    -1.3957 O.2     
  21 C21           -7.3607     5.1916     1.0807 C.3     
  22 C22           -8.8324     5.4716     0.9178 C.ar    
  23 C23           -9.7068     4.4359     0.6337 C.ar    
  24 C24          -11.0585     4.6933     0.4847 C.ar    
  25 C25          -11.5349     5.9861     0.6197 C.ar    
  26 C26          -10.6589     7.0199     0.9038 C.ar    
  27 C27           -9.3098     6.7609     1.0576 C.ar    
  28 F28          -12.8540     6.2388     0.4740 F       
  29 F29           -9.2405     3.1748     0.5018 F       
  30 H30           -0.8676    -0.4854    -0.6858 H       
  31 H31            1.2896    -1.7028    -0.4781 H       
  32 H32            3.2739    -0.4734     0.3708 H       
  33 H33            3.0557     1.9034     0.9805 H       
  34 H34           -0.5818     3.8565     0.6000 H       
  35 H35           -5.3567     7.4386     0.5112 H       
  36 H36           -2.7661     7.4653     2.1252 H       
  37 H37           -4.0859     8.6519     2.2610 H       
  38 H38           -4.3610     6.9572     2.7306 H       
  39 H39           -3.8650     7.9806    -1.3940 H       
  40 H40           -3.7963     9.2495    -0.1476 H       
  41 H41           -2.4765     8.0630    -0.2834 H       
  42 H42           -7.2236     4.1819     1.4676 H       
  43 H43           -6.9292     5.9097     1.7782 H       
  44 H44          -11.7410     3.8862     0.2628 H       
  45 H45          -11.0303     8.0286     1.0092 H       
  46 H46           -8.6278     7.5673     1.2833 H       
@<TRIPOS>BOND
   1    1    2 ar
   2    1    6 ar
   3    1    7 1
   4    2    3 ar
   5    2   30 1
   6    3    4 ar
   7    3   31 1
   8    4    5 ar
   9    4   32 1
  10    5    6 ar
  11    5   33 1
  12    7    8 2
  13    7    9 am
  14    9   11 1
  15    9   34 1
  16   10   11 1
  17   10   14 1
  18   11   12 2
  19   12   13 1
  20   13   14 2
  21   13   15 1
  22   14   18 1
  23   15   16 1
  24   15   17 1
  25   15   35 1
  26   16   36 1
  27   16   37 1
  28   16   38 1
  29   17   39 1
  30   17   40 1
  31   17   41 1
  32   18   19 2
  33   18   20 2
  34   18   21 1
  35   21   22 1
  36   21   42 1
  37   21   43 1
  38   22   23 ar
  39   22   27 ar
  40   23   24 ar
  41   23   29 1
  42   24   25 ar
  43   24   44 1
  44   25   26 ar
  45   25   28 1
  46   26   27 ar
  47   26   45 1
  48   27   46 1

#	End of record

