#	Name: ASD00960160
#	Creating user name:	WinNT
#	Creation time:	15. 06. 2019 18:53

#	Modifying user name:	WinNT
#	Modification time:	15. 06. 2019 18:53

#	Program:	/corina/corina34_cracker 3.40 0067  02.08.2006

@<TRIPOS>MOLECULE
ASD00960160
  53   54    0    0    0
SMALL
NO_CHARGES


@<TRIPOS>ATOM
   1 C1            -0.0187     1.5258     0.0104 C.3     
   2 C2            -0.7939     2.0498     1.2396 C.3     
   3 O3            -2.1388     2.2699     0.7613 O.3     
   4 C4            -1.9852     2.8481    -0.5533 C.3     
   5 C5            -3.2663     2.6636    -1.3692 C.3     
   6 C6            -0.7904     1.0203     2.3401 C.2     
   7 C7            -1.5336    -0.1123     2.3628 C.2     
   8 N8            -0.0364     1.0727     3.4706 N.pl3   
   9 C9            -0.3063    -0.0413     4.2309 C.2     
  10 C10           -1.2416    -0.7931     3.5513 C.2     
  11 C11           -0.8173     2.0630    -1.1982 C.3     
  12 C12            0.0021    -0.0041     0.0020 C.3     
  13 F13           -2.4021    -0.5133     1.4089 F       
  14 O14           -4.3194     3.4310    -0.7825 O.3     
  15 *15           -5.5503     3.3296    -1.4626 Du      
  16 Si16           1.3163     6.6874     6.2495 Si      
  17 C17            0.2292     5.2638     5.7375 C.3     
  18 C18            1.0590     4.2443     4.9546 C.3     
  19 O19            0.2251     3.1523     4.5619 O.3     
  20 C20            2.0297     7.5008     4.7329 C.3     
  21 C21            0.3060     7.9288     7.2029 C.3     
  22 C22            2.7006     6.0562     7.3249 C.3     
  23 C23            0.9062     2.1382     3.8204 C.3     
  24 C24            0.2809    -0.3641     5.4965 C.1     
  25 N25            0.7466    -0.6202     6.5004 N.1     
  26 O26           -0.0073     2.9327    -1.9916 O.3     
  27 *27           -0.3985     3.0053    -3.3443 Du      
  28 O28            1.3133     2.0434     0.0005 O.3     
  29 *29            2.0754     1.6441    -1.1166 Du      
  30 H30           -0.3588     2.9849     1.5922 H       
  31 H31           -1.7328     3.9056    -0.4756 H       
  32 H32           -3.0974     3.0006    -2.3919 H       
  33 H33           -3.5446     1.6097    -1.3752 H       
  34 H34           -1.6684    -1.7310     3.8747 H       
  35 H35           -1.1981     1.2386    -1.8010 H       
  36 H36            0.5184    -0.3653     0.8914 H       
  37 H37           -1.0206    -0.3813    -0.0028 H       
  38 H38            0.5232    -0.3555    -0.8885 H       
  39 H39           -0.1882     4.7879     6.6249 H       
  40 H40           -0.5807     5.6330     5.1084 H       
  41 H41            1.4763     4.7202     4.0672 H       
  42 H42            1.8689     3.8750     5.5838 H       
  43 H43            1.2198     7.8701     4.1037 H       
  44 H44            2.6657     8.3337     5.0324 H       
  45 H45            2.6208     6.7745     4.1751 H       
  46 H46           -0.1114     7.4529     8.0903 H       
  47 H47            0.9420     8.7617     7.5025 H       
  48 H48           -0.5039     8.2980     6.5737 H       
  49 H49            3.2917     5.3299     6.7671 H       
  50 H50            3.3366     6.8892     7.6245 H       
  51 H51            2.2832     5.5803     8.2123 H       
  52 H52            1.7129     1.7252     4.4260 H       
  53 H53            1.3204     2.5704     2.9095 H       
@<TRIPOS>BOND
   1    1   12 1
   2    1   28 1
   3    1    2 1
   4    1   11 1
   5    2    3 1
   6    2    6 1
   7    2   30 1
   8    3    4 1
   9    4   11 1
  10    4    5 1
  11    4   31 1
  12    5   14 1
  13    5   32 1
  14    5   33 1
  15    6    7 2
  16    6    8 1
  17    7   13 1
  18    7   10 1
  19    8    9 1
  20    8   23 1
  21    9   10 2
  22    9   24 1
  23   10   34 1
  24   11   26 1
  25   11   35 1
  26   12   36 1
  27   12   37 1
  28   12   38 1
  29   14   15 1
  30   16   17 1
  31   16   20 1
  32   16   21 1
  33   16   22 1
  34   17   18 1
  35   17   39 1
  36   17   40 1
  37   18   19 1
  38   18   41 1
  39   18   42 1
  40   19   23 1
  41   20   43 1
  42   20   44 1
  43   20   45 1
  44   21   46 1
  45   21   47 1
  46   21   48 1
  47   22   49 1
  48   22   50 1
  49   22   51 1
  50   23   52 1
  51   23   53 1
  52   24   25 3
  53   26   27 1
  54   28   29 1

#	End of record

