#	Name: ASD01410752
#	Creating user name:	WinNT
#	Creation time:	15. 06. 2019 19:18

#	Modifying user name:	WinNT
#	Modification time:	15. 06. 2019 19:18

#	Program:	/corina/corina34_cracker 3.40 0067  02.08.2006

@<TRIPOS>MOLECULE
ASD01410752
 115  121    0    0    0
SMALL
NO_CHARGES


@<TRIPOS>ATOM
   1 C1             2.3190    -0.1093     1.1610 C.3     
   2 C2             1.7474    -1.3601     1.8776 C.3     
   3 N3             0.8409    -0.8763     2.9195 N.am    
   4 C4             0.6023     0.5706     2.7065 C.3     
   5 C5             1.1793     0.9239     1.3231 C.3     
   6 O6             3.5103     0.3446     1.8067 O.3     
   7 C7            -0.8771     0.8567     2.7342 C.2     
   8 O8            -1.6648     0.0134     2.3609 O.2     
   9 N9            -1.3247     2.0495     3.1737 N.am    
  10 C10           -2.7642     2.2894     3.3029 C.3     
  11 C11           -3.5412     2.2918     2.0117 C.2     
  12 N12           -2.9975     2.8237     0.8990 N.am    
  13 O13           -4.6557     1.8150     1.9737 O.2     
  14 S14           -3.8951     2.9376    -0.4880 S.o2    
  15 C15           -5.2217     4.1035    -0.0742 C.3     
  16 C16           -3.4633     1.7380     4.5471 C.3     
  17 C17           -3.2251     3.2435     4.4065 C.3     
  18 C18           -6.3079     4.3398    -1.1255 C.3     
  19 C19           -6.6254     3.5315     0.1342 C.3     
  20 O20           -3.0047     3.5112    -1.4354 O.2     
  21 O21           -4.4201     1.6304    -0.6740 O.2     
  22 C22           -4.8980     1.2317     4.3852 C.3     
  23 C23           -5.3716     0.6117     5.7014 C.3     
  24 C24            4.3777     1.0706     1.0586 C.ar    
  25 C25            5.6381     1.4526     1.5746 C.ar    
  26 C26            4.0588     1.4486    -0.2193 C.ar    
  27 C27            4.9728     2.1987    -0.9719 C.ar    
  28 N28            6.1466     2.5552    -0.4783 N.ar    
  29 C29            6.5147     2.2110     0.7598 C.ar    
  30 C30            4.6166     2.6000    -2.3489 C.2     
  31 C31            7.7653     2.5966     1.2735 C.ar    
  32 C32            8.1180     2.2281     2.5526 C.ar    
  33 C33            7.2469     1.4752     3.3451 C.ar    
  34 C34            6.0285     1.0937     2.8729 C.ar    
  35 Cl35           8.8584     3.5309     0.3010 Cl      
  36 O36            9.3264     2.6003     3.0498 O.3     
  37 C37            9.6345     2.1878     4.3828 C.3     
  38 N38            5.3704     3.2946    -3.1526 N.2     
  39 C39            4.8893     3.5587    -4.3433 C.2     
  40 C40            3.6654     3.0784    -4.5979 C.2     
  41 S41            3.1075     2.2092    -3.1696 S.3     
  42 C42            5.6651     4.3536    -5.3618 C.3     
  43 C43            6.4137     3.3974    -6.2925 C.3     
  44 C44            4.6998     5.2120    -6.1817 C.3     
  45 C45            2.9271    -2.1384     2.4362 C.3     
  46 C46            2.5494    -3.4698     3.0196 C.3     
  47 C47            0.4203    -2.9653     4.3252 C.3     
  48 C48            0.2270    -1.5552     3.8831 C.2     
  49 C49           -0.3943    -3.8903     3.4188 C.3     
  50 C50           -0.1573    -5.3450     3.8295 C.3     
  51 C51           -1.8815    -3.5578     3.5550 C.3     
  52 O52           -0.6166    -0.9341     4.4944 O.2     
  53 N53            1.8172    -3.3511     4.2647 N.am    
  54 O54            3.7604    -3.9723     5.3971 O.3     
  55 C55            4.3921    -4.2371     6.6773 C.3     
  56 C56            3.6586    -5.3807     7.3811 C.3     
  57 C57            5.8537    -4.6302     6.4532 C.3     
  58 C58            4.3297    -2.9797     7.5467 C.3     
  59 C59            2.4635    -3.6113     5.4185 C.2     
  60 O60            1.8756    -3.5201     6.4780 O.2     
  61 H61            2.5077    -0.3192     0.1082 H       
  62 H62            1.1974    -1.9754     1.1654 H       
  63 H63            1.1096     1.1484     3.4792 H       
  64 H64            1.5742     1.9399     1.3164 H       
  65 H65            0.4266     0.7950     0.5453 H       
  66 H66           -0.6938     2.7492     3.4044 H       
  67 H67           -2.0806     3.1398     0.9107 H       
  68 H68           -4.9266     4.9515     0.5439 H       
  69 H69           -2.8523     1.1968     5.2695 H       
  70 H70           -2.4574     3.6926     5.0367 H       
  71 H71           -4.0905     3.8728     4.1989 H       
  72 H72           -6.7277     5.3431    -1.1987 H       
  73 H73           -6.2254     3.7947    -2.0657 H       
  74 H74           -6.7517     2.4546     0.0227 H       
  75 H75           -7.2539     4.0030     0.8897 H       
  76 H76           -5.5496     2.0646     4.1208 H       
  77 H77           -4.9313     0.4799     3.5967 H       
  78 H78           -6.3937     0.2511     5.5861 H       
  79 H79           -4.7201    -0.2212     5.9658 H       
  80 H80           -5.3384     1.3636     6.4899 H       
  81 H81            3.1065     1.1691    -0.6453 H       
  82 H82            7.5424     1.1960     4.3456 H       
  83 H83            5.3649     0.5123     3.4958 H       
  84 H84            8.8956     2.5992     5.0704 H       
  85 H85            9.6171     1.0994     4.4395 H       
  86 H86           10.6258     2.5500     4.6554 H       
  87 H87            3.1169     3.1990    -5.5204 H       
  88 H88            6.3806     4.9982    -4.8512 H       
  89 H89            5.6982     2.7528    -6.8030 H       
  90 H90            6.9748     3.9724    -7.0291 H       
  91 H91            7.1014     2.7859    -5.7083 H       
  92 H92            3.9843     4.5674    -6.6922 H       
  93 H93            4.1665     5.8932    -5.5186 H       
  94 H94            5.2609     5.7870    -6.9183 H       
  95 H95            3.6481    -2.3009     1.6351 H       
  96 H96            3.4029    -1.5399     3.2131 H       
  97 H97            1.9327    -4.0070     2.2991 H       
  98 H98            3.4576    -4.0451     3.1994 H       
  99 H99            0.0665    -3.0692     5.3510 H       
 100 H100          -0.0840    -3.7500     2.3833 H       
 101 H101          -0.4676    -5.4854     4.8649 H       
 102 H102          -0.7376    -6.0040     3.1837 H       
 103 H103           0.9022    -5.5819     3.7324 H       
 104 H104          -2.0461    -2.5135     3.2895 H       
 105 H105          -2.4595    -4.1976     2.8882 H       
 106 H106          -2.1985    -3.7253     4.5844 H       
 107 H107           3.7031    -6.2765     6.7617 H       
 108 H108           4.1329    -5.5795     8.3421 H       
 109 H109           2.6174    -5.1007     7.5407 H       
 110 H110           6.3762    -3.8155     5.9518 H       
 111 H111           6.3279    -4.8290     7.4143 H       
 112 H112           5.8981    -5.5260     5.8338 H       
 113 H113           3.2884    -2.6997     7.7064 H       
 114 H114           4.8039    -3.1786     8.5078 H       
 115 H115           4.8522    -2.1650     7.0453 H       
@<TRIPOS>BOND
   1    1    2 1
   2    1    6 1
   3    1    5 1
   4    1   61 1
   5    2    3 1
   6    2   45 1
   7    2   62 1
   8    3    4 1
   9    3   48 am
  10    4    5 1
  11    4    7 1
  12    4   63 1
  13    5   64 1
  14    5   65 1
  15    6   24 1
  16    7    8 2
  17    7    9 am
  18    9   10 1
  19    9   66 1
  20   10   11 1
  21   10   16 1
  22   10   17 1
  23   11   12 am
  24   11   13 2
  25   12   14 am
  26   12   67 1
  27   14   15 1
  28   14   20 2
  29   14   21 2
  30   15   18 1
  31   15   19 1
  32   15   68 1
  33   16   17 1
  34   16   22 1
  35   16   69 1
  36   17   70 1
  37   17   71 1
  38   18   19 1
  39   18   72 1
  40   18   73 1
  41   19   74 1
  42   19   75 1
  43   22   23 1
  44   22   76 1
  45   22   77 1
  46   23   78 1
  47   23   79 1
  48   23   80 1
  49   24   25 ar
  50   24   26 ar
  51   25   29 ar
  52   25   34 ar
  53   26   27 ar
  54   26   81 1
  55   27   28 ar
  56   27   30 1
  57   28   29 ar
  58   29   31 ar
  59   30   38 2
  60   30   41 1
  61   31   32 ar
  62   31   35 1
  63   32   33 ar
  64   32   36 1
  65   33   34 ar
  66   33   82 1
  67   34   83 1
  68   36   37 1
  69   37   84 1
  70   37   85 1
  71   37   86 1
  72   38   39 1
  73   39   40 2
  74   39   42 1
  75   40   41 1
  76   40   87 1
  77   42   43 1
  78   42   44 1
  79   42   88 1
  80   43   89 1
  81   43   90 1
  82   43   91 1
  83   44   92 1
  84   44   93 1
  85   44   94 1
  86   45   46 1
  87   45   95 1
  88   45   96 1
  89   46   53 1
  90   46   97 1
  91   46   98 1
  92   47   48 1
  93   47   49 1
  94   47   53 1
  95   47   99 1
  96   48   52 2
  97   49   50 1
  98   49   51 1
  99   49  100 1
 100   50  101 1
 101   50  102 1
 102   50  103 1
 103   51  104 1
 104   51  105 1
 105   51  106 1
 106   53   59 am
 107   54   55 1
 108   54   59 1
 109   55   56 1
 110   55   57 1
 111   55   58 1
 112   56  107 1
 113   56  108 1
 114   56  109 1
 115   57  110 1
 116   57  111 1
 117   57  112 1
 118   58  113 1
 119   58  114 1
 120   58  115 1
 121   59   60 2

#	End of record

