#	Name: ASD04590225
#	Creating user name:	WinNT
#	Creation time:	15. 06. 2019 20:50

#	Modifying user name:	WinNT
#	Modification time:	15. 06. 2019 20:50

#	Program:	/corina/corina34_cracker 3.40 0067  02.08.2006

@<TRIPOS>MOLECULE
ASD04590225
  61   66    0    0    0
SMALL
NO_CHARGES


@<TRIPOS>ATOM
   1 N1            -0.0170     1.3232    -0.0111 N.ar    
   2 C2             0.0017    -0.0035    -0.0048 C.ar    
   3 N3             1.1299    -0.6949    -0.0117 N.ar    
   4 C4             2.3050    -0.0729    -0.0258 C.ar    
   5 C5             2.3189     1.3365    -0.0332 C.ar    
   6 C6             1.1072     2.0202    -0.0250 C.ar    
   7 N7             3.6031    -0.5196    -0.0356 N.pl3   
   8 C8             4.4823     0.5494    -0.0492 C.ar    
   9 C9             3.7313     1.7384    -0.0484 C.ar    
  10 C10            5.8681     0.6417    -0.0621 C.ar    
  11 N11            6.4613     1.8180    -0.0729 N.ar    
  12 C12            5.7851     2.9532    -0.0724 C.ar    
  13 C13            4.4064     2.9584    -0.0605 C.ar    
  14 N14           -1.2019    -0.6887     0.0098 N.pl3   
  15 C15           -2.4022     0.0122     0.1304 C.ar    
  16 C16            4.0018    -1.9293    -0.0315 C.3     
  17 N17           -2.3891     1.3195     0.3310 N.ar    
  18 N18           -3.4683     2.0042     0.4478 N.ar    
  19 C19           -4.6668     1.4483     0.3753 C.ar    
  20 C20           -4.7831     0.0733     0.1655 C.ar    
  21 C21           -3.6194    -0.6637     0.0338 C.ar    
  22 N22           -5.8099     2.2334     0.5087 N.3     
  23 C23            3.4003    -2.6450     1.1956 C.3     
  24 C24            3.4384    -2.6399    -1.2747 C.3     
  25 C25            2.5143    -3.7627    -0.7597 C.3     
  26 C26            2.1010    -3.2942     0.6576 C.3     
  27 C27           -6.6945     2.0766    -0.6529 C.3     
  28 C28           -5.4581     3.6431     0.7218 C.3     
  29 C29           -6.7271     4.4492     1.0083 C.3     
  30 C30           -7.6881     4.3170    -0.1764 C.3     
  31 C31           -8.0003     2.8359    -0.4075 C.3     
  32 C32           -8.9838     5.0709     0.1298 C.3     
  33 O33           -9.8327     5.0455    -1.0195 O.3     
  34 H34            1.0849     3.0999    -0.0307 H       
  35 H35            6.4645    -0.2587    -0.0630 H       
  36 H36            6.3204     3.8911    -0.0815 H       
  37 H37            3.8598     3.8898    -0.0602 H       
  38 H38           -1.2103    -1.6559    -0.0637 H       
  39 H39            5.0887    -2.0096    -0.0160 H       
  40 H40           -5.7518    -0.4003     0.1036 H       
  41 H41           -3.6520    -1.7307    -0.1299 H       
  42 H42            4.0842    -3.4094     1.5645 H       
  43 H43            3.1704    -1.9260     1.9818 H       
  44 H44            2.8684    -1.9359    -1.8810 H       
  45 H45            4.2519    -3.0658    -1.8620 H       
  46 H46            1.6378    -3.8592    -1.4003 H       
  47 H47            3.0551    -4.7075    -0.7065 H       
  48 H48            1.8090    -4.1435     1.2754 H       
  49 H49            1.2967    -2.5605     0.6027 H       
  50 H50           -6.2032     2.4762    -1.5401 H       
  51 H51           -6.9120     1.0192    -0.8036 H       
  52 H52           -4.7777     3.7235     1.5696 H       
  53 H53           -4.9727     4.0354    -0.1718 H       
  54 H54           -7.2057     4.0663     1.9096 H       
  55 H55           -6.4674     5.4981     1.1510 H       
  56 H56           -7.2247     4.7353    -1.0699 H       
  57 H57           -8.6503     2.7322    -1.2763 H       
  58 H58           -8.4990     2.4276     0.4716 H       
  59 H59           -9.4924     4.5940     0.9677 H       
  60 H60           -8.7509     6.1043     0.3866 H       
  61 H61          -10.6742     5.5058    -0.8972 H       
@<TRIPOS>BOND
   1    1    2 ar
   2    1    6 ar
   3    2    3 ar
   4    2   14 1
   5    3    4 ar
   6    4    5 ar
   7    4    7 1
   8    5    6 ar
   9    5    9 1
  10    6   34 1
  11    7    8 1
  12    7   16 1
  13    8    9 ar
  14    8   10 ar
  15    9   13 ar
  16   10   11 ar
  17   10   35 1
  18   11   12 ar
  19   12   13 ar
  20   12   36 1
  21   13   37 1
  22   14   15 1
  23   14   38 1
  24   15   17 ar
  25   15   21 ar
  26   16   24 1
  27   16   23 1
  28   16   39 1
  29   17   18 ar
  30   18   19 ar
  31   19   20 ar
  32   19   22 1
  33   20   21 ar
  34   20   40 1
  35   21   41 1
  36   22   28 1
  37   22   27 1
  38   23   26 1
  39   23   42 1
  40   23   43 1
  41   24   25 1
  42   24   44 1
  43   24   45 1
  44   25   26 1
  45   25   46 1
  46   25   47 1
  47   26   48 1
  48   26   49 1
  49   27   31 1
  50   27   50 1
  51   27   51 1
  52   28   29 1
  53   28   52 1
  54   28   53 1
  55   29   30 1
  56   29   54 1
  57   29   55 1
  58   30   31 1
  59   30   32 1
  60   30   56 1
  61   31   57 1
  62   31   58 1
  63   32   33 1
  64   32   59 1
  65   32   60 1
  66   33   61 1

#	End of record

