#	Name: ASD01180252
#	Creating user name:	WinNT
#	Creation time:	15. 06. 2019 19:07

#	Modifying user name:	WinNT
#	Modification time:	15. 06. 2019 19:07

#	Program:	/corina/corina34_cracker 3.40 0067  02.08.2006

@<TRIPOS>MOLECULE
ASD01180252
  62   64    0    0    0
SMALL
NO_CHARGES


@<TRIPOS>ATOM
   1 C1            -2.6137    -1.6064    -5.7504 C.2     
   2 C2            -2.0283    -2.3815    -4.5982 C.3     
   3 C3            -1.0309    -3.4121    -5.1312 C.3     
   4 O4            -2.2686    -1.8530    -6.8818 O.2     
   5 O5            -3.5226    -0.6459    -5.5203 O.3     
   6 N6            -0.4618    -4.1655    -4.0111 N.am    
   7 C7             0.4467    -5.1338    -4.2426 C.2     
   8 O8             0.7940    -5.3819    -5.3812 O.2     
   9 C9             0.6283    -5.6160    -1.8035 C.ar    
  10 C10            1.0199    -5.8926    -3.1146 C.ar    
  11 C11            1.9660    -6.9030    -3.3442 C.ar    
  12 C12            2.4709    -7.5817    -2.2679 C.ar    
  13 C13            2.0345    -7.2526    -0.9860 C.ar    
  14 N14            1.1388    -6.2929    -0.7964 N.ar    
  15 N15            2.5427    -7.9373     0.1049 N.pl3   
  16 C16            3.6167    -8.9163    -0.0802 C.3     
  17 C17            4.3836    -9.0863     1.2328 C.3     
  18 C18            5.0459    -7.7602     1.6119 C.3     
  19 C19            5.6957    -7.8906     2.9910 C.3     
  20 C20            1.9735   -12.5914    -1.2206 C.ar    
  21 N21            3.0963   -12.1789    -1.7928 N.ar    
  22 C22            3.6414   -11.0229    -1.4555 C.ar    
  23 C23            3.0247   -10.2398    -0.4912 C.ar    
  24 C24            1.8516   -10.7013     0.0871 C.ar    
  25 N25            1.3590   -11.8668    -0.2956 N.ar    
  26 C26            1.3878   -13.8913    -1.6292 C.ar    
  27 C27            0.2083   -14.3431    -1.0400 C.ar    
  28 C28           -0.3321   -15.5535    -1.4241 C.ar    
  29 C29            0.2949   -16.3181    -2.3914 C.ar    
  30 C30            1.4660   -15.8749    -2.9791 C.ar    
  31 C31            2.0119   -14.6630    -2.6077 C.ar    
  32 C32           -0.2999   -17.6392    -2.8061 C.3     
  33 F33           -1.1851   -17.4384    -3.8707 F       
  34 F34            0.7227   -18.5057    -3.2069 F       
  35 F35           -0.9895   -18.1999    -1.7257 F       
  36 C36            6.1152    -7.4094     0.5754 C.3     
  37 H37           -1.5166    -1.6965    -3.9222 H       
  38 H38           -2.8271    -2.8929    -4.0612 H       
  39 H39           -1.5426    -4.0971    -5.8072 H       
  40 H40           -0.2320    -2.9006    -5.6682 H       
  41 H41           -3.8695    -0.1760    -6.2910 H       
  42 H42           -0.7388    -3.9676    -3.1028 H       
  43 H43           -0.0959    -4.8376    -1.6136 H       
  44 H44            2.2884    -7.1400    -4.3473 H       
  45 H45            3.2004    -8.3652    -2.4109 H       
  46 H46            2.1875    -7.7688     0.9917 H       
  47 H47            4.2976    -8.5662    -0.8560 H       
  48 H48            3.6928    -9.3858     2.0209 H       
  49 H49            5.1490    -9.8526     1.1099 H       
  50 H50            4.2930    -6.9725     1.6381 H       
  51 H51            6.4486    -8.6784     2.9648 H       
  52 H52            6.1675    -6.9459     3.2611 H       
  53 H53            4.9338    -8.1405     3.7294 H       
  54 H54            4.5563   -10.6924    -1.9248 H       
  55 H55            1.3464   -10.1154     0.8407 H       
  56 H56           -0.2817   -13.7473    -0.2842 H       
  57 H57           -1.2461   -15.9046    -0.9683 H       
  58 H58            1.9517   -16.4763    -3.7334 H       
  59 H59            2.9235   -14.3155    -3.0709 H       
  60 H60            5.6460    -7.2732    -0.3989 H       
  61 H61            6.6172    -6.4875     0.8690 H       
  62 H62            6.8443    -8.2177     0.5178 H       
@<TRIPOS>BOND
   1    1    2 1
   2    1    4 2
   3    1    5 1
   4    2    3 1
   5    2   37 1
   6    2   38 1
   7    3    6 1
   8    3   39 1
   9    3   40 1
  10    5   41 1
  11    6    7 am
  12    6   42 1
  13    7    8 2
  14    7   10 1
  15    9   10 ar
  16    9   14 ar
  17    9   43 1
  18   10   11 ar
  19   11   12 ar
  20   11   44 1
  21   12   13 ar
  22   12   45 1
  23   13   14 ar
  24   13   15 1
  25   15   16 1
  26   15   46 1
  27   16   17 1
  28   16   23 1
  29   16   47 1
  30   17   18 1
  31   17   48 1
  32   17   49 1
  33   18   19 1
  34   18   36 1
  35   18   50 1
  36   19   51 1
  37   19   52 1
  38   19   53 1
  39   20   21 ar
  40   20   25 ar
  41   20   26 1
  42   21   22 ar
  43   22   23 ar
  44   22   54 1
  45   23   24 ar
  46   24   25 ar
  47   24   55 1
  48   26   27 ar
  49   26   31 ar
  50   27   28 ar
  51   27   56 1
  52   28   29 ar
  53   28   57 1
  54   29   30 ar
  55   29   32 1
  56   30   31 ar
  57   30   58 1
  58   31   59 1
  59   32   33 1
  60   32   34 1
  61   32   35 1
  62   36   60 1
  63   36   61 1
  64   36   62 1

#	End of record

