#	Name: ASD01820068
#	Creating user name:	WinNT
#	Creation time:	15. 06. 2019 19:36

#	Modifying user name:	WinNT
#	Modification time:	15. 06. 2019 19:36

#	Program:	/corina/corina34_cracker 3.40 0067  02.08.2006

@<TRIPOS>MOLECULE
ASD01820068
  71   76    0    0    0
SMALL
NO_CHARGES


@<TRIPOS>ATOM
   1 C1            -0.0167     1.3781     0.0096 C.ar    
   2 C2             0.0021    -0.0041     0.0020 C.ar    
   3 C3             1.2063    -0.6904    -0.0131 C.ar    
   4 C4             2.3989     0.0151    -0.0207 C.ar    
   5 C5             2.3798     1.4244    -0.0130 C.ar    
   6 C6             1.1684     2.0970     0.0022 C.ar    
   7 C7             3.8259    -0.3700    -0.0364 C.2     
   8 N8             4.5720     0.7494    -0.0375 N.am    
   9 C9             3.7959     1.8481    -0.0242 C.2     
  10 O10            4.1923     2.9960    -0.0224 O.2     
  11 O11            4.2533    -1.5068    -0.0462 O.2     
  12 C12            6.5325     0.7843    -1.4992 C.3     
  13 N13            7.9973     0.8042    -1.5135 N.ar    
  14 C14            8.6549    -0.3387    -1.5263 C.ar    
  15 C15           10.0367    -0.3592    -1.5396 C.ar    
  16 C16           10.7302     0.8414    -1.5397 C.ar    
  17 C17           10.0044     2.0227    -1.5264 C.ar    
  18 C18            8.6236     1.9647    -1.5186 C.ar    
  19 C19           12.2370     0.8619    -1.5534 C.3     
  20 C20           12.7337     0.8763    -3.0005 C.3     
  21 C21           14.2635     0.8972    -3.0144 C.3     
  22 C22           14.7527     0.9114    -4.4397 C.ar    
  23 C23           14.9670     2.1090    -5.1047 C.ar    
  24 C24           15.4160     2.0828    -6.4115 C.ar    
  25 N25           15.6396     0.9371    -7.0250 N.ar    
  26 C26           15.4463    -0.2206    -6.4240 C.ar    
  27 C27           15.0047    -0.2728    -5.1154 C.ar    
  28 C28           16.1146     0.9509    -8.4108 C.3     
  29 N29           18.1195     0.9853    -9.8110 N.am    
  30 C30           18.3516     2.1015   -10.5250 C.2     
  31 C31           18.8241     1.7106   -11.8700 C.ar    
  32 C32           18.8464     0.3013   -11.8764 C.ar    
  33 C33           18.3866    -0.1166   -10.5351 C.2     
  34 C34           19.2074     2.4110   -13.0025 C.ar    
  35 C35           19.6102     1.7197   -14.1344 C.ar    
  36 C36           19.6317     0.3376   -14.1408 C.ar    
  37 C37           19.2521    -0.3763   -13.0149 C.ar    
  38 O38           18.2704    -1.2628   -10.1509 O.2     
  39 O39           18.1981     3.2399   -10.1308 O.2     
  40 C40            6.0368     0.7693    -0.0518 C.3     
  41 C41           17.6444     0.9714    -8.4253 C.3     
  42 H42           -0.9613     1.9015     0.0169 H       
  43 H43           -0.9280    -0.5530     0.0083 H       
  44 H44            1.2149    -1.7703    -0.0187 H       
  45 H45            1.1477     3.1767     0.0078 H       
  46 H46            6.1521     1.6721    -2.0043 H       
  47 H47            6.1762    -0.1077    -2.0145 H       
  48 H48            8.1073    -1.2696    -1.5261 H       
  49 H49           10.5696    -1.2985    -1.5493 H       
  50 H50           10.5117     2.9762    -1.5258 H       
  51 H51            8.0510     2.8803    -1.5086 H       
  52 H52           12.5930     1.7541    -1.0382 H       
  53 H53           12.6171    -0.0257    -1.0477 H       
  54 H54           12.3778    -0.0158    -3.5157 H       
  55 H55           12.3536     1.7640    -3.5062 H       
  56 H56           14.6194     1.7893    -2.4992 H       
  57 H57           14.6436     0.0095    -2.5087 H       
  58 H58           14.7850     3.0505    -4.6078 H       
  59 H59           15.5853     3.0113    -6.9364 H       
  60 H60           15.6400    -1.1386    -6.9590 H       
  61 H61           14.8487    -1.2241    -4.6285 H       
  62 H62           15.7583     0.0589    -8.9259 H       
  63 H63           15.7346     1.8387    -8.9163 H       
  64 H64           19.1920     3.4908   -13.0034 H       
  65 H65           19.9091     2.2648   -15.0176 H       
  66 H66           19.9468    -0.1897   -15.0291 H       
  67 H67           19.2710    -1.4561   -13.0256 H       
  68 H68            6.3931     1.6613     0.4635 H       
  69 H69            6.4172    -0.1185     0.4534 H       
  70 H70           18.0007     1.8635    -7.9101 H       
  71 H71           18.0245     0.0837    -7.9197 H       
@<TRIPOS>BOND
   1    1    2 ar
   2    1    6 ar
   3    1   42 1
   4    2    3 ar
   5    2   43 1
   6    3    4 ar
   7    3   44 1
   8    4    5 ar
   9    4    7 1
  10    5    6 ar
  11    5    9 1
  12    6   45 1
  13    7    8 am
  14    7   11 2
  15    8    9 am
  16    8   40 1
  17    9   10 2
  18   12   13 1
  19   12   40 1
  20   12   46 1
  21   12   47 1
  22   13   14 ar
  23   13   18 ar
  24   14   15 ar
  25   14   48 1
  26   15   16 ar
  27   15   49 1
  28   16   17 ar
  29   16   19 1
  30   17   18 ar
  31   17   50 1
  32   18   51 1
  33   19   20 1
  34   19   52 1
  35   19   53 1
  36   20   21 1
  37   20   54 1
  38   20   55 1
  39   21   22 1
  40   21   56 1
  41   21   57 1
  42   22   23 ar
  43   22   27 ar
  44   23   24 ar
  45   23   58 1
  46   24   25 ar
  47   24   59 1
  48   25   26 ar
  49   25   28 1
  50   26   27 ar
  51   26   60 1
  52   27   61 1
  53   28   41 1
  54   28   62 1
  55   28   63 1
  56   29   30 am
  57   29   33 am
  58   29   41 1
  59   30   31 1
  60   30   39 2
  61   31   32 ar
  62   31   34 ar
  63   32   33 1
  64   32   37 ar
  65   33   38 2
  66   34   35 ar
  67   34   64 1
  68   35   36 ar
  69   35   65 1
  70   36   37 ar
  71   36   66 1
  72   37   67 1
  73   40   68 1
  74   40   69 1
  75   41   70 1
  76   41   71 1

#	End of record

