#	Name: ASD01910910
#	Creating user name:	WinNT
#	Creation time:	15. 06. 2019 19:56

#	Modifying user name:	WinNT
#	Modification time:	15. 06. 2019 19:56

#	Program:	/corina/corina34_cracker 3.40 0067  02.08.2006

@<TRIPOS>MOLECULE
ASD01910910
  51   54    0    0    0
SMALL
NO_CHARGES


@<TRIPOS>ATOM
   1 N1             0.1379     1.3763    -0.1931 N.3     
   2 C2             0.0784    -0.0896    -0.1187 C.3     
   3 C3            -1.3673    -0.5263     0.1409 C.3     
   4 N4            -2.2298     0.0798    -0.8848 N.am    
   5 C5            -2.1265     1.5291    -1.1129 C.3     
   6 C6            -0.6509     1.8849    -1.3232 C.3     
   7 C7            -3.0921    -0.6728    -1.5963 C.2     
   8 C8            -4.0371    -0.0281    -2.5333 C.ar    
   9 C9            -4.3123    -0.6206    -3.7677 C.ar    
  10 C10           -5.1946    -0.0205    -4.6447 C.ar    
  11 C11           -5.8105     1.1681    -4.3090 C.ar    
  12 C12           -5.5442     1.7731    -3.0766 C.ar    
  13 C13           -4.6590     1.1687    -2.1842 C.ar    
  14 C14           -6.1834     3.0066    -2.7293 C.1     
  15 O15           -3.0931    -1.8815    -1.4679 O.2     
  16 C16           -6.7074     4.0178    -2.4446 C.1     
  17 C17           -7.3466     5.2513    -2.0972 C.ar    
  18 C18           -7.0879     5.8645    -0.8689 C.ar    
  19 N19           -7.6761     6.9987    -0.5503 N.ar    
  20 C20           -8.5234     7.5974    -1.3651 C.ar    
  21 C21           -8.8333     7.0545    -2.5996 C.ar    
  22 C22           -8.2381     5.8672    -2.9861 C.ar    
  23 C23            1.4601     1.8205    -0.2654 C.ar    
  24 C24            1.7345     3.1801    -0.3428 C.ar    
  25 C25            3.0430     3.6159    -0.4143 C.ar    
  26 C26            4.0795     2.7006    -0.4088 C.ar    
  27 C27            3.8100     1.3465    -0.3318 C.ar    
  28 C28            2.5040     0.9041    -0.2544 C.ar    
  29 N29            5.4806     3.1714    -0.4860 N.pl3   
  30 O30            5.7196     4.3638    -0.5542 O.2     
  31 O31            6.3947     2.3664    -0.4813 O.2     
  32 H32            0.4236    -0.5160    -1.0606 H       
  33 H33            0.7153    -0.4387     0.6941 H       
  34 H34           -1.4377    -1.6125     0.0832 H       
  35 H35           -1.6801    -0.1883     1.1288 H       
  36 H36           -2.6988     1.8019    -1.9996 H       
  37 H37           -2.5123     2.0648    -0.2456 H       
  38 H38           -0.5429     2.9678    -1.3839 H       
  39 H39           -0.2955     1.4311    -2.2483 H       
  40 H40           -3.8338    -1.5505    -4.0374 H       
  41 H41           -5.4031    -0.4833    -5.5980 H       
  42 H42           -6.4993     1.6320    -4.9995 H       
  43 H43           -4.4493     1.6311    -1.2310 H       
  44 H44           -6.4002     5.4043    -0.1749 H       
  45 H45           -8.9833     8.5269    -1.0634 H       
  46 H46           -9.5292     7.5550    -3.2564 H       
  47 H47           -8.4619     5.4215    -3.9440 H       
  48 H48            0.9254     3.8954    -0.3475 H       
  49 H49            3.2569     4.6728    -0.4748 H       
  50 H50            4.6219     0.6343    -0.3281 H       
  51 H51            2.2942    -0.1536    -0.1943 H       
@<TRIPOS>BOND
   1    1    2 1
   2    1   23 1
   3    1    6 1
   4    2    3 1
   5    2   32 1
   6    2   33 1
   7    3    4 1
   8    3   34 1
   9    3   35 1
  10    4    5 1
  11    4    7 am
  12    5    6 1
  13    5   36 1
  14    5   37 1
  15    6   38 1
  16    6   39 1
  17    7    8 1
  18    7   15 2
  19    8    9 ar
  20    8   13 ar
  21    9   10 ar
  22    9   40 1
  23   10   11 ar
  24   10   41 1
  25   11   12 ar
  26   11   42 1
  27   12   13 ar
  28   12   14 1
  29   13   43 1
  30   14   16 3
  31   16   17 1
  32   17   18 ar
  33   17   22 ar
  34   18   19 ar
  35   18   44 1
  36   19   20 ar
  37   20   21 ar
  38   20   45 1
  39   21   22 ar
  40   21   46 1
  41   22   47 1
  42   23   24 ar
  43   23   28 ar
  44   24   25 ar
  45   24   48 1
  46   25   26 ar
  47   25   49 1
  48   26   27 ar
  49   26   29 1
  50   27   28 ar
  51   27   50 1
  52   28   51 1
  53   29   30 2
  54   29   31 2

#	End of record

