#	Name: ASD03090227
#	Creating user name:	WinNT
#	Creation time:	15. 06. 2019 20:28

#	Modifying user name:	WinNT
#	Modification time:	15. 06. 2019 20:28

#	Program:	/corina/corina34_cracker 3.40 0067  02.08.2006

@<TRIPOS>MOLECULE
ASD03090227
  45   48    0    0    0
SMALL
NO_CHARGES


@<TRIPOS>ATOM
   1 C1            -0.3929     1.4394    -1.4818 C.ar    
   2 C2            -1.5449     2.2146    -1.1945 C.ar    
   3 C3            -2.7456     1.5613    -0.8689 C.ar    
   4 C4            -2.7456     0.1723    -0.8441 C.ar    
   5 C5            -1.5621    -0.5247    -1.1411 C.ar    
   6 N6            -0.4560     0.1038    -1.4472 N.ar    
   7 C7            -3.9816    -0.5671    -0.5073 C.2     
   8 N8            -5.7744    -3.4147     0.5104 N.pl3   
   9 C9            -4.8534    -4.4128     0.8397 C.ar    
  10 C10           -3.6304    -4.0727     1.4037 C.ar    
  11 C11           -2.7224    -5.0617     1.7280 C.ar    
  12 C12           -3.0297    -6.3890     1.4918 C.ar    
  13 C13           -4.2464    -6.7311     0.9299 C.ar    
  14 C14           -5.1612    -5.7479     0.6090 C.ar    
  15 N15           -4.0520    -1.8271    -0.1258 N.2     
  16 C16           -5.3250    -2.1599     0.0944 C.2     
  17 N17           -6.0875    -1.1175    -0.1430 N.2     
  18 N18           -5.2381    -0.0686    -0.5305 N.pl3   
  19 C19           -5.6354     1.2934    -0.8957 C.3     
  20 C20           -5.7362     2.1513     0.3671 C.3     
  21 O21           -6.1238     3.4797     0.0108 O.3     
  22 C22            0.8066     2.0960    -1.8071 C.ar    
  23 C23            0.8457     3.4561    -1.8416 C.ar    
  24 C24           -0.2876     4.2160    -1.5589 C.ar    
  25 C25           -1.4678     3.6171    -1.2402 C.ar    
  26 C26           -4.5765    -8.1789     0.6734 C.3     
  27 F27           -3.5059    -8.9809     1.0831 F       
  28 F28           -5.7241    -8.5300     1.3924 F       
  29 F29           -4.8058    -8.3699    -0.6934 F       
  30 H30           -3.6410     2.1219    -0.6444 H       
  31 H31           -1.5667    -1.6045    -1.1207 H       
  32 H32           -6.7258    -3.5937     0.5708 H       
  33 H33           -3.3897    -3.0362     1.5881 H       
  34 H34           -1.7712    -4.7980     2.1662 H       
  35 H35           -2.3179    -7.1603     1.7463 H       
  36 H36           -6.1111    -6.0156     0.1702 H       
  37 H37           -4.8911     1.7213    -1.5672 H       
  38 H38           -6.6037     1.2677    -1.3957 H       
  39 H39           -6.4805     1.7233     1.0386 H       
  40 H40           -4.7679     2.1770     0.8670 H       
  41 H41           -6.2074     4.0804     0.7640 H       
  42 H42            1.6948     1.5229    -2.0286 H       
  43 H43            1.7706     3.9546    -2.0919 H       
  44 H44           -0.2289     5.2939    -1.5932 H       
  45 H45           -2.3397     4.2163    -1.0232 H       
@<TRIPOS>BOND
   1    1    2 ar
   2    1   22 ar
   3    1    6 ar
   4    2    3 ar
   5    2   25 ar
   6    3    4 ar
   7    3   30 1
   8    4    5 ar
   9    4    7 1
  10    5    6 ar
  11    5   31 1
  12    7   15 2
  13    7   18 1
  14    8    9 1
  15    8   16 1
  16    8   32 1
  17    9   10 ar
  18    9   14 ar
  19   10   11 ar
  20   10   33 1
  21   11   12 ar
  22   11   34 1
  23   12   13 ar
  24   12   35 1
  25   13   14 ar
  26   13   26 1
  27   14   36 1
  28   15   16 1
  29   16   17 2
  30   17   18 1
  31   18   19 1
  32   19   20 1
  33   19   37 1
  34   19   38 1
  35   20   21 1
  36   20   39 1
  37   20   40 1
  38   21   41 1
  39   22   23 ar
  40   22   42 1
  41   23   24 ar
  42   23   43 1
  43   24   25 ar
  44   24   44 1
  45   25   45 1
  46   26   27 1
  47   26   28 1
  48   26   29 1

#	End of record

