#	Name: ASD01148037
#	Creating user name:	WinNT
#	Creation time:	15. 06. 2019 19:01

#	Modifying user name:	WinNT
#	Modification time:	15. 06. 2019 19:01

#	Program:	/corina/corina34_cracker 3.40 0067  02.08.2006

@<TRIPOS>MOLECULE
ASD01148037
  33   33    0    0    0
SMALL
NO_CHARGES


@<TRIPOS>ATOM
   1 C1            -0.0184     1.5028     0.0103 C.2     
   2 C2             0.0021    -0.0041     0.0020 C.3     
   3 C3            -0.2550    -0.5098    -1.4189 C.3     
   4 O4             1.0236     2.1234     0.0037 O.2     
   5 N5            -1.1946     2.1607     0.0195 N.am    
   6 C6            -1.2145     3.6256     0.0275 C.3     
   7 C7            -3.3161     4.3328     1.1659 C.2     
   8 C8            -2.6419     4.1085     0.0369 C.2     
   9 C9            -3.3527     4.3535    -1.1254 C.2     
  10 C10           -4.6041     4.7766    -0.9403 C.2     
  11 S11           -4.9415     4.8847     0.7825 S.3     
  12 O12           -0.3515    -1.9355    -1.4069 O.3     
  13 C13           -0.5922    -2.5126    -2.6919 C.3     
  14 F14           -1.7975    -2.0216    -3.2052 F       
  15 F15            0.4544    -2.1769    -3.5574 F       
  16 N16            1.3109    -0.4772     0.4594 N.am    
  17 C17            2.4256    -0.1328    -0.2155 C.2     
  18 O18            2.3450     0.5689    -1.2014 O.2     
  19 C19            3.7720    -0.6195     0.2551 C.3     
  20 H20           -0.7738    -0.3816     0.6680 H       
  21 H21           -1.1871    -0.0857    -1.7924 H       
  22 H22            0.5674    -0.2067    -2.0668 H       
  23 H23           -2.0280     1.6644     0.0207 H       
  24 H24           -0.7014     3.9910     0.9171 H       
  25 H25           -0.7098     4.0007    -0.8628 H       
  26 H26           -2.9251     4.1925     2.1628 H       
  27 H27           -2.9263     4.2129    -2.1076 H       
  28 H28           -5.3030     5.0168    -1.7278 H       
  29 H29           -0.6522    -3.5968    -2.5977 H       
  30 H30            1.3754    -1.0384     1.2480 H       
  31 H31            3.9994    -1.5741    -0.2194 H       
  32 H32            4.5360     0.1104    -0.0126 H       
  33 H33            3.7544    -0.7468     1.3375 H       
@<TRIPOS>BOND
   1    1    2 1
   2    1    4 2
   3    1    5 am
   4    2    3 1
   5    2   16 1
   6    2   20 1
   7    3   12 1
   8    3   21 1
   9    3   22 1
  10    5    6 1
  11    5   23 1
  12    6    8 1
  13    6   24 1
  14    6   25 1
  15    7    8 2
  16    7   11 1
  17    7   26 1
  18    8    9 1
  19    9   10 2
  20    9   27 1
  21   10   11 1
  22   10   28 1
  23   12   13 1
  24   13   14 1
  25   13   15 1
  26   13   29 1
  27   16   17 am
  28   16   30 1
  29   17   18 2
  30   17   19 1
  31   19   31 1
  32   19   32 1
  33   19   33 1

#	End of record

