#	Name: ASD01830007
#	Creating user name:	WinNT
#	Creation time:	15. 06. 2019 19:36

#	Modifying user name:	WinNT
#	Modification time:	15. 06. 2019 19:36

#	Program:	/corina/corina34_cracker 3.40 0067  02.08.2006

@<TRIPOS>MOLECULE
ASD01830007
  71   72    0    0    0
SMALL
NO_CHARGES


@<TRIPOS>ATOM
   1 Cl1            0.0000     0.0000     0.0000 Cl      
   2 H2             0.0000     1.3700     0.0000 H       
   3 Cl3            5.0000     6.3700     5.0000 Cl      
   4 H4             5.0000     7.7400     5.0000 H       
   5 Cl5           10.0000    12.7400    10.0000 Cl      
   6 H6            10.0000    14.1100    10.0000 H       
   7 C7            17.6243    31.1353    16.9012 C.3     
   8 C8            17.3267    29.6451    16.7234 C.3     
   9 H9            17.5734    29.3365    15.7076 H       
  10 C10           15.8351    29.3700    17.0081 C.3     
  11 C11           15.8664    28.0081    17.7504 C.3     
  12 C12           17.1709    28.1319    18.5765 C.3     
  13 N13           18.1121    28.8578    17.6916 N.3     
  14 C14           19.0079    29.7233    18.4703 C.3     
  15 C15           19.6080    28.9337    19.6050 C.2     
  16 S16           18.9228    28.7624    21.2191 S.3     
  17 C17           20.2817    27.7475    21.6920 C.2     
  18 N18           20.4572    27.1761    22.9450 N.am    
  19 C19           21.5412    26.4145    23.1924 C.2     
  20 O20           22.3654    26.2278    22.3184 O.2     
  21 C21           21.7280    25.8063    24.5261 C.ar    
  22 C22           22.8524    25.0230    24.7840 C.ar    
  23 N23           23.0188    24.4796    25.9759 N.ar    
  24 C24           22.1157    24.6793    26.9283 C.ar    
  25 C25           20.9875    25.4648    26.6691 C.ar    
  26 N26           20.8244    26.0108    25.4845 N.ar    
  27 N27           22.2901    24.1098    28.1777 N.3     
  28 C28           21.1342    23.2796    28.5440 C.3     
  29 C29           21.3299    22.7339    29.9605 C.3     
  30 N30           22.5737    21.9531    30.0144 N.3     
  31 C31           22.7589    21.3487    31.3404 C.3     
  32 C32           21.6673    20.3401    31.5895 C.2     
  33 O33           21.5599    19.7502    32.7905 O.3     
  34 O34           20.8887    20.0623    30.7083 O.2     
  35 C35           23.7296    22.7834    29.6480 C.3     
  36 C36           23.5339    23.3290    28.2315 C.3     
  37 N37           21.0929    27.6156    20.6891 N.2     
  38 C38           20.7574    28.2331    19.5576 C.2     
  39 C39           21.5900    28.1588    18.3378 C.2     
  40 C40           22.9363    28.0991    18.3171 C.2     
  41 C41           23.4913    28.0352    17.0536 C.2     
  42 Cl42          25.2054    27.9512    16.7915 Cl      
  43 C43           22.6115    28.0423    16.0487 C.2     
  44 S44           20.9762    28.1271    16.6898 S.3     
  45 H45           18.6851    31.3171    16.7287 H       
  46 H46           17.0361    31.7111    16.1865 H       
  47 H47           17.3636    31.4395    17.9149 H       
  48 H48           15.4148    30.1473    17.6463 H       
  49 H49           15.2738    29.2888    16.0773 H       
  50 H50           15.0000    27.8990    18.4027 H       
  51 H51           15.9284    27.1799    17.0444 H       
  52 H52           16.9900    28.7009    19.4884 H       
  53 H53           17.5634    27.1437    18.8163 H       
  54 H54           19.8042    30.0957    17.8258 H       
  55 H55           18.4423    30.5641    18.8719 H       
  56 H56           19.7996    27.3250    23.6423 H       
  57 H57           23.5867    24.8604    24.0089 H       
  58 H58           20.2529    25.6268    27.4440 H       
  59 H59           20.2272    23.8831    28.5089 H       
  60 H60           21.0462    22.4493    27.8434 H       
  61 H61           21.3907    23.5637    30.6647 H       
  62 H62           20.4874    22.0943    30.2235 H       
  63 H63           23.7284    20.8523    31.3813 H       
  64 H64           22.7163    22.1261    32.1032 H       
  65 H65           20.8439    19.1100    32.9027 H       
  66 H66           23.8176    23.6137    30.3486 H       
  67 H67           24.6366    22.1798    29.6831 H       
  68 H68           23.4732    22.4993    27.5273 H       
  69 H69           24.3765    23.9686    27.9686 H       
  70 H70           23.5338    28.1014    19.2168 H       
  71 H71           22.8660    27.9986    15.0000 H       
@<TRIPOS>BOND
   1    1    2 1
   2    3    4 1
   3    5    6 1
   4    7    8 1
   5    7   45 1
   6    7   46 1
   7    7   47 1
   8    8    9 1
   9    8   13 1
  10    8   10 1
  11   10   11 1
  12   10   48 1
  13   10   49 1
  14   11   12 1
  15   11   50 1
  16   11   51 1
  17   12   13 1
  18   12   52 1
  19   12   53 1
  20   13   14 1
  21   14   15 1
  22   14   54 1
  23   14   55 1
  24   15   38 2
  25   15   16 1
  26   16   17 1
  27   17   18 1
  28   17   37 2
  29   18   19 am
  30   18   56 1
  31   19   20 2
  32   19   21 1
  33   21   26 ar
  34   21   22 ar
  35   22   23 ar
  36   22   57 1
  37   23   24 ar
  38   24   25 ar
  39   24   27 1
  40   25   26 ar
  41   25   58 1
  42   27   36 1
  43   27   28 1
  44   28   29 1
  45   28   59 1
  46   28   60 1
  47   29   30 1
  48   29   61 1
  49   29   62 1
  50   30   31 1
  51   30   35 1
  52   31   32 1
  53   31   63 1
  54   31   64 1
  55   32   33 1
  56   32   34 2
  57   33   65 1
  58   35   36 1
  59   35   66 1
  60   35   67 1
  61   36   68 1
  62   36   69 1
  63   37   38 1
  64   38   39 1
  65   39   44 1
  66   39   40 2
  67   40   41 1
  68   40   70 1
  69   41   42 1
  70   41   43 2
  71   43   44 1
  72   43   71 1

#	End of record

