#	Name: ASD04910436
#	Creating user name:	WinNT
#	Creation time:	15. 06. 2019 20:55

#	Modifying user name:	WinNT
#	Modification time:	15. 06. 2019 20:55

#	Program:	/corina/corina34_cracker 3.40 0067  02.08.2006

@<TRIPOS>MOLECULE
ASD04910436
  39   41    0    0    0
SMALL
NO_CHARGES


@<TRIPOS>ATOM
   1 C1            -0.0167     1.3839     0.0097 C.ar    
   2 C2             0.0021    -0.0041     0.0020 C.ar    
   3 C3             1.2282    -0.6660    -0.0133 C.ar    
   4 C4             2.3858     0.0920    -0.0203 C.ar    
   5 C5             2.2884     1.4774    -0.0119 C.ar    
   6 N6             1.1073     2.0731     0.0026 N.ar    
   7 N7            -1.1941    -0.7288     0.0101 N.pl3   
   8 C8             4.7284     1.7946    -0.1293 C.2     
   9 N9             5.5411     2.8152    -0.0960 N.2     
  10 C10            4.8306     3.9454     0.0346 C.2     
  11 C11            3.5255     3.6184     0.0847 C.2     
  12 N12            3.4540     2.2528    -0.0190 N.pl3   
  13 C13            5.3957     5.3403     0.1124 C.3     
  14 F14            6.7796     5.2946    -0.0875 F       
  15 F15            4.8079     6.1373    -0.8758 F       
  16 F16            5.1241     5.8838     1.3725 F       
  17 C17           -2.4779    -0.0232     0.0266 C.3     
  18 C18           -2.8786     0.3403    -1.4045 C.3     
  19 F19           -2.9979    -0.8271    -2.1662 F       
  20 F20           -4.1046     1.0141    -1.3887 F       
  21 F21           -1.8997     1.1663    -1.9673 F       
  22 C22           -3.5324    -0.9130     0.6329 C.ar    
  23 C23           -4.4778    -0.3796     1.4889 C.ar    
  24 C24           -5.4454    -1.1953     2.0448 C.ar    
  25 C25           -5.4675    -2.5453     1.7445 C.ar    
  26 C26           -4.5213    -3.0785     0.8879 C.ar    
  27 C27           -3.5573    -2.2612     0.3284 C.ar    
  28 Br28          -6.7906    -3.6618     2.5052 Br      
  29 H29           -0.9626     1.9051     0.0170 H       
  30 H30            1.2738    -1.7450    -0.0192 H       
  31 H31            3.3533    -0.3879    -0.0318 H       
  32 H32           -1.1737    -1.6985     0.0046 H       
  33 H33            5.0196     0.7597    -0.2321 H       
  34 H34            2.6945     4.3005     0.1873 H       
  35 H35           -2.3850     0.8864     0.6201 H       
  36 H36           -4.4602     0.6744     1.7235 H       
  37 H37           -6.1838    -0.7786     2.7137 H       
  38 H38           -4.5380    -4.1327     0.6535 H       
  39 H39           -2.8210    -2.6766    -0.3436 H       
@<TRIPOS>BOND
   1    1    2 ar
   2    1    6 ar
   3    1   29 1
   4    2    3 ar
   5    2    7 1
   6    3    4 ar
   7    3   30 1
   8    4    5 ar
   9    4   31 1
  10    5    6 ar
  11    5   12 1
  12    7   17 1
  13    7   32 1
  14    8    9 2
  15    8   12 1
  16    8   33 1
  17    9   10 1
  18   10   11 2
  19   10   13 1
  20   11   12 1
  21   11   34 1
  22   13   14 1
  23   13   15 1
  24   13   16 1
  25   17   18 1
  26   17   22 1
  27   17   35 1
  28   18   19 1
  29   18   20 1
  30   18   21 1
  31   22   23 ar
  32   22   27 ar
  33   23   24 ar
  34   23   36 1
  35   24   25 ar
  36   24   37 1
  37   25   26 ar
  38   25   28 1
  39   26   27 ar
  40   26   38 1
  41   27   39 1

#	End of record

