#	Name: ASD05143074
#	Creating user name:	WinNT
#	Creation time:	15. 06. 2019 20:57

#	Modifying user name:	WinNT
#	Modification time:	15. 06. 2019 20:57

#	Program:	/corina/corina34_cracker 3.40 0067  02.08.2006

@<TRIPOS>MOLECULE
ASD05143074
 142  145    0    0    0
SMALL
NO_CHARGES


@<TRIPOS>ATOM
   1 C1            -1.9681     2.7162     4.9857 C.2     
   2 C2            -1.4480     1.6057     5.8617 C.3     
   3 N3            -1.1110     3.4532     4.2518 N.am    
   4 O4            -3.1585     2.9433     4.9373 O.2     
   5 C5            -1.6167     4.5327     3.4002 C.3     
   6 C6            -2.5863     3.9555     2.3670 C.3     
   7 C7            -2.3349     5.5488     4.2505 C.2     
   8 C8            -1.8288     3.0178     1.4248 C.3     
   9 C9            -2.7983     2.4406     0.3915 C.3     
  10 N10           -2.0730     1.5427    -0.5106 N.pl3   
  11 C11           -2.7414     0.9030    -1.5276 C.2     
  12 N12           -2.0607     0.0603    -2.3742 N.pl3   
  13 N13           -4.0204     1.0954    -1.6891 N.2     
  14 O14           -2.7366     5.2417     5.3529 O.2     
  15 N15           -2.5308     6.7986     3.7858 N.am    
  16 C16           -3.2290     7.7863     4.6123 C.3     
  17 C17           -2.2112     8.7530     5.2209 C.3     
  18 C18           -1.0418     7.9604     5.8080 C.3     
  19 C19           -0.0026     7.7327     4.7407 C.2     
  20 N20            1.3113     7.9518     5.0446 N.am    
  21 C21            2.2677     7.6985     3.9429 C.3     
  22 C22            2.4191     8.9802     3.1212 C.3     
  23 C23            2.9417     8.6321     1.7259 C.3     
  24 C24            3.9264     9.7090     1.2660 C.3     
  25 N25            3.7571     9.9207    -0.1856 N.am    
  26 C26            5.3362     9.2586     1.5497 C.2     
  27 N27            5.8436     9.3751     2.7929 N.am    
  28 O28            6.0143     8.7913     0.6594 O.2     
  29 C29            2.9522    10.9523    -0.5599 C.2     
  30 O30            2.4194    11.6503     0.2767 O.2     
  31 C31            2.7316    11.2167    -2.0271 C.3     
  32 N32            1.5473    12.0935    -2.1751 N.am    
  33 C33            3.9618    11.9113    -2.6146 C.3     
  34 C34            0.4131    11.4750    -2.6195 C.2     
  35 O35            0.4146    10.2886    -2.8716 O.2     
  36 C36           -0.8400    12.2946    -2.7902 C.3     
  37 N37           -2.0123    11.4068    -2.6581 N.am    
  38 C38           -0.8941    13.3789    -1.7121 C.3     
  39 C39           -3.0270    11.8512    -1.8666 C.2     
  40 O40           -2.9450    12.9231    -1.3052 O.2     
  41 C41           -4.2537    10.9922    -1.6985 C.3     
  42 C42            3.7893    12.0636    -4.1039 C.2     
  43 C43            3.0879    13.1492    -4.7934 C.ar    
  44 C44            3.1882    12.8658    -6.1676 C.ar    
  45 N45            3.8996    11.6932    -6.2896 N.pl3   
  46 C46            4.2541    11.2332    -5.0507 C.2     
  47 C47            2.4106    14.2928    -4.3655 C.ar    
  48 C48            1.8480    15.1318    -5.2853 C.ar    
  49 C49            1.9438    14.8564    -6.6427 C.ar    
  50 C50            2.6081    13.7343    -7.0867 C.ar    
  51 N51           -4.7118    11.0888    -0.2937 N.am    
  52 C52           -3.9109     9.5379    -2.0277 C.3     
  53 C53           -5.1561     8.6944    -1.9327 C.ar    
  54 C54           -6.1539     8.8244    -2.8820 C.ar    
  55 C55           -7.2967     8.0492    -2.7944 C.ar    
  56 C56           -7.4408     7.1457    -1.7586 C.ar    
  57 C57           -6.4432     7.0163    -0.8101 C.ar    
  58 C58           -5.2990     7.7866    -0.9000 C.ar    
  59 C59           -4.2045     8.5559     3.7592 C.2     
  60 O60           -5.3984     8.4569     3.9484 O.2     
  61 C61           -0.7635    12.7324    -0.3316 C.3     
  62 C62           -0.9422    13.7995     0.7502 C.3     
  63 N63           -0.8172    13.1805     2.0721 N.pl3   
  64 C64           -0.9420    13.9487     3.2055 C.2     
  65 N65           -1.1841    15.2978     3.0983 N.pl3   
  66 N66           -0.8307    13.3980     4.3816 N.2     
  67 N67           -3.7263     9.3633     2.7731 N.am    
  68 C68           -4.7292    10.0920     1.9709 C.3     
  69 C69           -4.3013    10.0760     0.5261 C.2     
  70 O70           -3.6051     9.1796     0.0985 O.2     
  71 O71           -0.3265     7.3613     3.6326 O.2     
  72 N72           -5.1099    11.5488     3.9022 N.3     
  73 C73           -4.8254    11.5382     2.4611 C.3     
  74 Cl74          -5.9725     9.9599    -4.1825 Cl      
  75 H75           -0.3632     1.5498     5.7717 H       
  76 H76           -1.7167     1.8052     6.8991 H       
  77 H77           -1.8879     0.6591     5.5480 H       
  78 H78           -0.1594     3.2689     4.2875 H       
  79 H79           -0.7827     5.0122     2.8878 H       
  80 H80           -3.3729     3.4000     2.8775 H       
  81 H81           -3.0300     4.7680     1.7916 H       
  82 H82           -1.0421     3.5734     0.9143 H       
  83 H83           -1.3850     2.2053     2.0002 H       
  84 H84           -3.5850     1.8850     0.9020 H       
  85 H85           -3.2421     3.2531    -0.1839 H       
  86 H86           -1.1212     1.3995    -0.3905 H       
  87 H87           -1.1089    -0.0829    -2.2541 H       
  88 H88           -2.5323    -0.3910    -3.0917 H       
  89 H89           -4.4919     0.6440    -2.4066 H       
  90 H90           -2.2095     7.0442     2.9041 H       
  91 H91           -3.7681     7.2762     5.4106 H       
  92 H92           -1.8419     9.4261     4.4472 H       
  93 H93           -2.6888     9.3340     6.0099 H       
  94 H94           -0.5998     8.5213     6.6315 H       
  95 H95           -1.4021     6.9995     6.1751 H       
  96 H96            1.5977     8.2526     5.9212 H       
  97 H97            3.2349     7.4131     4.3567 H       
  98 H98            1.8891     6.8987     3.3066 H       
  99 H99            1.4505     9.4725     3.0340 H       
 100 H100           3.1233     9.6486     3.6167 H       
 101 H101           3.4476     7.6671     1.7579 H       
 102 H102           2.1065     8.5813     1.0274 H       
 103 H103           3.7243    10.6394     1.7968 H       
 104 H104           4.1966     9.3536    -0.8385 H       
 105 H105           5.3013     9.7489     3.5050 H       
 106 H106           6.7511     9.0852     2.9755 H       
 107 H107           2.5568    10.2746    -2.5466 H       
 108 H108           1.5750    13.0414    -1.9709 H       
 109 H109           4.0755    12.8952    -2.1595 H       
 110 H110           4.8492    11.3120    -2.4111 H       
 111 H111          -0.8419    12.7577    -3.7769 H       
 112 H112          -2.0571    10.5505    -3.1117 H       
 113 H113          -0.0752    14.0823    -1.8629 H       
 114 H114          -1.8446    13.9085    -1.7769 H       
 115 H115          -5.0410    11.3446    -2.3649 H       
 116 H116           4.1198    11.2599    -7.1290 H       
 117 H117           4.8177    10.3314    -4.8621 H       
 118 H118           2.3314    14.5131    -3.3112 H       
 119 H119           1.3242    16.0163    -4.9539 H       
 120 H120           1.4935    15.5290    -7.3577 H       
 121 H121           2.6774    13.5289    -8.1447 H       
 122 H122          -5.2647    11.8204     0.0225 H       
 123 H123          -3.5088     9.4794    -3.0391 H       
 124 H124          -3.1682     9.1704    -1.3196 H       
 125 H125          -8.0762     8.1505    -3.5350 H       
 126 H126          -8.3329     6.5409    -1.6899 H       
 127 H127          -6.5564     6.3103    -0.0006 H       
 128 H128          -4.5200     7.6848    -0.1590 H       
 129 H129          -1.5294    11.9656    -0.2156 H       
 130 H130           0.2228    12.2785    -0.2348 H       
 131 H131          -0.1764    14.5664     0.6342 H       
 132 H132          -1.9285    14.2534     0.6534 H       
 133 H133          -0.6463    12.2287     2.1477 H       
 134 H134          -1.2669    15.7077     2.2231 H       
 135 H135          -1.2722    15.8398     3.8979 H       
 136 H136          -0.9188    13.9400     5.1812 H       
 137 H137          -2.7753     9.4555     2.6061 H       
 138 H138          -5.6996     9.6055     2.0698 H       
 139 H139          -5.1783    12.4934     4.2503 H       
 140 H140          -5.9475    11.0257     4.1093 H       
 141 H141          -3.8809    12.0490     2.2734 H       
 142 H142          -5.6272    12.0498     1.9286 H       
@<TRIPOS>BOND
   1    1    2 1
   2    1    3 am
   3    1    4 2
   4    2   75 1
   5    2   76 1
   6    2   77 1
   7    3    5 1
   8    3   78 1
   9    5    6 1
  10    5    7 1
  11    5   79 1
  12    6    8 1
  13    6   80 1
  14    6   81 1
  15    7   14 2
  16    7   15 am
  17    8    9 1
  18    8   82 1
  19    8   83 1
  20    9   10 1
  21    9   84 1
  22    9   85 1
  23   10   11 1
  24   10   86 1
  25   11   12 1
  26   11   13 2
  27   12   87 1
  28   12   88 1
  29   13   89 1
  30   15   16 1
  31   15   90 1
  32   16   17 1
  33   16   59 1
  34   16   91 1
  35   17   18 1
  36   17   92 1
  37   17   93 1
  38   18   19 1
  39   18   94 1
  40   18   95 1
  41   19   20 am
  42   19   71 2
  43   20   21 1
  44   20   96 1
  45   21   22 1
  46   21   97 1
  47   21   98 1
  48   22   23 1
  49   22   99 1
  50   22  100 1
  51   23   24 1
  52   23  101 1
  53   23  102 1
  54   24   25 1
  55   24   26 1
  56   24  103 1
  57   25   29 am
  58   25  104 1
  59   26   27 am
  60   26   28 2
  61   27  105 1
  62   27  106 1
  63   29   30 2
  64   29   31 1
  65   31   32 1
  66   31   33 1
  67   31  107 1
  68   32   34 am
  69   32  108 1
  70   33   42 1
  71   33  109 1
  72   33  110 1
  73   34   35 2
  74   34   36 1
  75   36   37 1
  76   36   38 1
  77   36  111 1
  78   37   39 am
  79   37  112 1
  80   38   61 1
  81   38  113 1
  82   38  114 1
  83   39   40 2
  84   39   41 1
  85   41   51 1
  86   41   52 1
  87   41  115 1
  88   42   43 1
  89   42   46 2
  90   43   44 ar
  91   43   47 ar
  92   44   45 1
  93   44   50 ar
  94   45   46 1
  95   45  116 1
  96   46  117 1
  97   47   48 ar
  98   47  118 1
  99   48   49 ar
 100   48  119 1
 101   49   50 ar
 102   49  120 1
 103   50  121 1
 104   51   69 am
 105   51  122 1
 106   52   53 1
 107   52  123 1
 108   52  124 1
 109   53   54 ar
 110   53   58 ar
 111   54   55 ar
 112   54   74 1
 113   55   56 ar
 114   55  125 1
 115   56   57 ar
 116   56  126 1
 117   57   58 ar
 118   57  127 1
 119   58  128 1
 120   59   60 2
 121   59   67 am
 122   61   62 1
 123   61  129 1
 124   61  130 1
 125   62   63 1
 126   62  131 1
 127   62  132 1
 128   63   64 1
 129   63  133 1
 130   64   65 1
 131   64   66 2
 132   65  134 1
 133   65  135 1
 134   66  136 1
 135   67   68 1
 136   67  137 1
 137   68   69 1
 138   68   73 1
 139   68  138 1
 140   69   70 2
 141   72   73 1
 142   72  139 1
 143   72  140 1
 144   73  141 1
 145   73  142 1

#	End of record

