#	Name: ASD00170537
#	Creating user name:	WinNT
#	Creation time:	15. 06. 2019 18:32

#	Modifying user name:	WinNT
#	Modification time:	15. 06. 2019 18:32

#	Program:	/corina/corina34_cracker 3.40 0067  02.08.2006

@<TRIPOS>MOLECULE
ASD00170537
  62   65    0    0    0
SMALL
NO_CHARGES


@<TRIPOS>ATOM
   1 C1             0.0377     1.5332     0.1091 C.3     
   2 N2             0.0462     0.0647     0.0750 N.3     
   3 C3            -1.3003    -0.4754     0.3091 C.3     
   4 C4            -1.2637    -2.0006     0.1869 C.3     
   5 N5            -0.3049    -2.5444     1.1589 N.3     
   6 C6             1.0416    -2.0043     0.9248 C.3     
   7 C7             1.0050    -0.4791     1.0470 C.3     
   8 C8            -0.2964    -4.0130     1.1248 C.3     
   9 C9             0.8582    -4.5278     1.9451 C.2     
  10 C10            2.0034    -4.9324     1.4182 C.2     
  11 S11            3.1148    -5.4636     2.6674 S.3     
  12 C12            1.9990    -5.1267     3.9109 C.2     
  13 C13            0.8294    -4.6240     3.3894 C.2     
  14 C14           -0.3218    -4.2377     4.2049 C.2     
  15 O15           -0.3781    -3.1216     4.6888 O.2     
  16 C16           -1.4173    -5.2024     4.4417 C.ar    
  17 C17           -2.5671    -4.8030     5.1254 C.ar    
  18 C18           -3.5853    -5.7071     5.3433 C.ar    
  19 C19           -3.4690    -7.0091     4.8852 C.ar    
  20 C20           -2.3306    -7.4111     4.2061 C.ar    
  21 C21           -1.3082    -6.5144     3.9773 C.ar    
  22 Cl22          -4.7547    -8.1417     5.1637 Cl      
  23 N23            2.2378    -5.3256     5.2556 N.pl3   
  24 C24           -0.1925     2.0087     1.5451 C.3     
  25 C25           -0.5952     3.4847     1.5349 C.3     
  26 C26           -1.6250     3.7256     0.4295 C.3     
  27 C27           -1.0105     4.6116    -0.6561 C.3     
  28 C28           -0.0510     3.7796    -1.5095 C.3     
  29 C29            1.2488     3.5481    -0.7367 C.3     
  30 C30            1.3820     2.0630    -0.3942 C.3     
  31 H31           -0.7624     1.9069    -0.5299 H       
  32 H32           -1.6344    -0.1986     1.3091 H       
  33 H33           -1.9893    -0.0678    -0.4306 H       
  34 H34           -2.2553    -2.4055     0.3887 H       
  35 H35           -0.9558    -2.2773    -0.8214 H       
  36 H36            1.7306    -2.4119     1.6646 H       
  37 H37            1.3757    -2.2811    -0.0751 H       
  38 H38            1.9966    -0.0742     0.8452 H       
  39 H39            0.6971    -0.2024     2.0553 H       
  40 H40           -1.2319    -4.3914     1.5366 H       
  41 H41           -0.1896    -4.3518     0.0943 H       
  42 H42            2.2236    -4.9357     0.3609 H       
  43 H43           -2.6587    -3.7882     5.4834 H       
  44 H44           -4.4751    -5.3994     5.8724 H       
  45 H45           -2.2454    -8.4275     3.8513 H       
  46 H46           -0.4212    -6.8288     3.4474 H       
  47 H47            3.0613    -5.7489     5.5445 H       
  48 H48            1.5821    -5.0420     5.9118 H       
  49 H49           -0.9876     1.4183     2.0004 H       
  50 H50            0.7255     1.8865     2.1199 H       
  51 H51           -1.0288     3.7496     2.4993 H       
  52 H52            0.2854     4.1002     1.3514 H       
  53 H53           -1.9213     2.7710    -0.0053 H       
  54 H54           -2.5003     4.2205     0.8500 H       
  55 H55           -1.8023     5.0146    -1.2876 H       
  56 H56           -0.4644     5.4317    -0.1899 H       
  57 H57           -0.5113     2.8194    -1.7423 H       
  58 H58            0.1667     4.3121    -2.4353 H       
  59 H59            2.0956     3.8570    -1.3495 H       
  60 H60            1.2336     4.1330     0.1830 H       
  61 H61            2.1366     1.9353     0.3820 H       
  62 H62            1.6799     1.5100    -1.2851 H       
@<TRIPOS>BOND
   1    1    2 1
   2    1   24 1
   3    1   30 1
   4    1   31 1
   5    2    3 1
   6    2    7 1
   7    3    4 1
   8    3   32 1
   9    3   33 1
  10    4    5 1
  11    4   34 1
  12    4   35 1
  13    5    6 1
  14    5    8 1
  15    6    7 1
  16    6   36 1
  17    6   37 1
  18    7   38 1
  19    7   39 1
  20    8    9 1
  21    8   40 1
  22    8   41 1
  23    9   10 2
  24    9   13 1
  25   10   11 1
  26   10   42 1
  27   11   12 1
  28   12   13 2
  29   12   23 1
  30   13   14 1
  31   14   15 2
  32   14   16 1
  33   16   17 ar
  34   16   21 ar
  35   17   18 ar
  36   17   43 1
  37   18   19 ar
  38   18   44 1
  39   19   20 ar
  40   19   22 1
  41   20   21 ar
  42   20   45 1
  43   21   46 1
  44   23   47 1
  45   23   48 1
  46   24   25 1
  47   24   49 1
  48   24   50 1
  49   25   26 1
  50   25   51 1
  51   25   52 1
  52   26   27 1
  53   26   53 1
  54   26   54 1
  55   27   28 1
  56   27   55 1
  57   27   56 1
  58   28   29 1
  59   28   57 1
  60   28   58 1
  61   29   30 1
  62   29   59 1
  63   29   60 1
  64   30   61 1
  65   30   62 1

#	End of record

