#	Name: ASD01820042
#	Creating user name:	WinNT
#	Creation time:	15. 06. 2019 19:36

#	Modifying user name:	WinNT
#	Modification time:	15. 06. 2019 19:36

#	Program:	/corina/corina34_cracker 3.40 0067  02.08.2006

@<TRIPOS>MOLECULE
ASD01820042
  87   90    0    0    0
SMALL
NO_CHARGES


@<TRIPOS>ATOM
   1 N1            -1.1053     1.3306     0.5038 N.am    
   2 C2            -0.7417    -0.0475     0.1647 C.3     
   3 C3            -0.2017    -0.7536     1.4099 C.3     
   4 C4             0.0609    -2.2260     1.0877 C.3     
   5 N5             0.4415    -2.9358     2.3163 N.4     
   6 C6             0.2613    -4.3808     2.1228 C.3     
   7 C7             0.6576    -5.1200     3.4023 C.3     
   8 C8             0.4700    -6.6250     3.2008 C.3     
   9 C9             0.8663    -7.3643     4.4804 C.3     
  10 C10            0.6786    -8.8693     4.2788 C.3     
  11 C11            1.0750    -9.6086     5.5584 C.3     
  12 C12            1.8494    -2.6553     2.6277 C.3     
  13 C13           -0.4057    -2.4811     3.4269 C.3     
  14 N14            0.8948   -11.0536     5.3649 N.4     
  15 C15            1.2753   -11.7633     6.5935 C.3     
  16 C16            1.0876   -13.2683     6.3919 C.3     
  17 C17            1.4840   -14.0076     7.6715 C.3     
  18 N18            1.3043   -15.4487     7.4785 N.am    
  19 C19           -0.5132   -11.3341     5.0535 C.3     
  20 C20            1.7419   -11.5083     4.2543 C.3     
  21 C21            2.2536   -16.2780     7.0088 C.2     
  22 C22            1.6992   -17.6472     6.9567 C.ar    
  23 C23            0.3743   -17.5449     7.4266 C.ar    
  24 C24            0.1701   -16.1178     7.7532 C.2     
  25 C25            2.1997   -18.8799     6.5694 C.ar    
  26 C26            1.3928   -20.0043     6.6470 C.ar    
  27 C27            0.0933   -19.9039     7.1073 C.ar    
  28 C28           -0.4207   -18.6775     7.4987 C.ar    
  29 O29           -0.8527   -15.6299     8.1900 O.2     
  30 O30            3.3778   -15.9555     6.6815 O.2     
  31 C31           -0.2679     2.3804     0.4241 C.2     
  32 C32           -0.9952     3.5961     0.8460 C.ar    
  33 C33           -2.2995     3.1720     1.1708 C.ar    
  34 C34           -2.3223     1.7138     0.9303 C.2     
  35 C35           -0.6560     4.9343     0.9651 C.ar    
  36 C36           -1.6029     5.8469     1.4032 C.ar    
  37 C37           -2.8821     5.4310     1.7218 C.ar    
  38 C38           -3.2357     4.0956     1.6074 C.ar    
  39 O39            0.8918     2.3365     0.0662 O.2     
  40 O40           -3.2778     0.9828     1.0965 O.2     
  41 C41            1.1036    -0.0868     1.8486 C.3     
  42 H42           -1.6224    -0.5764    -0.1998 H       
  43 H43            0.0247    -0.0408    -0.6103 H       
  44 H44           -0.9340    -0.6827     2.2141 H       
  45 H45           -0.8425    -2.6742     0.6742 H       
  46 H46            0.8691    -2.3002     0.3601 H       
  47 H47           -0.7834    -4.5889     1.8917 H       
  48 H48            0.8899    -4.7182     1.2987 H       
  49 H49            1.7023    -4.9119     3.6334 H       
  50 H50            0.0290    -4.7826     4.2264 H       
  51 H51           -0.5747    -6.8332     2.9697 H       
  52 H52            1.0986    -6.9625     2.3767 H       
  53 H53            1.9110    -7.1562     4.7115 H       
  54 H54            0.2377    -7.0269     5.3045 H       
  55 H55           -0.3661    -9.0774     4.0478 H       
  56 H56            1.3072    -9.2067     3.4548 H       
  57 H57            2.1197    -9.4004     5.7895 H       
  58 H58            0.4464    -9.2711     6.3825 H       
  59 H59            1.9568    -1.6089     2.9136 H       
  60 H60            2.1732    -3.2919     3.4511 H       
  61 H61            2.4629    -2.8568     1.7496 H       
  62 H62           -1.4504    -2.6892     3.1958 H       
  63 H63           -0.1233    -3.0077     4.3385 H       
  64 H64           -0.2720    -1.4089     3.5705 H       
  65 H65            2.3200   -11.5552     6.8246 H       
  66 H66            0.6467   -11.4259     7.4176 H       
  67 H67            0.0429   -13.4765     6.1609 H       
  68 H68            1.7162   -13.6058     5.5679 H       
  69 H69            2.5287   -13.7995     7.9026 H       
  70 H70            0.8554   -13.6702     8.4956 H       
  71 H71           -0.7955   -10.8074     4.1419 H       
  72 H72           -0.6469   -12.4063     4.9099 H       
  73 H73           -1.1418   -10.9967     5.8776 H       
  74 H74            2.7866   -11.3002     4.4854 H       
  75 H75            1.6082   -12.5805     4.1107 H       
  76 H76            1.4596   -10.9816     3.3427 H       
  77 H77            3.2140   -18.9642     6.2082 H       
  78 H78            1.7821   -20.9655     6.3453 H       
  79 H79           -0.5258   -20.7871     7.1625 H       
  80 H80           -1.4368   -18.6050     7.8575 H       
  81 H81            0.3420     5.2649     0.7180 H       
  82 H82           -1.3393     6.8900     1.4967 H       
  83 H83           -3.6111     6.1515     2.0621 H       
  84 H84           -4.2365     3.7763     1.8581 H       
  85 H85            1.9305    -0.4847     1.2603 H       
  86 H86            1.0319     0.9897     1.6929 H       
  87 H87            1.2784    -0.2903     2.9050 H       
@<TRIPOS>BOND
   1    1    2 1
   2    1   31 am
   3    1   34 am
   4    2    3 1
   5    2   42 1
   6    2   43 1
   7    3    4 1
   8    3   41 1
   9    3   44 1
  10    4    5 1
  11    4   45 1
  12    4   46 1
  13    5    6 1
  14    5   12 1
  15    5   13 1
  16    6    7 1
  17    6   47 1
  18    6   48 1
  19    7    8 1
  20    7   49 1
  21    7   50 1
  22    8    9 1
  23    8   51 1
  24    8   52 1
  25    9   10 1
  26    9   53 1
  27    9   54 1
  28   10   11 1
  29   10   55 1
  30   10   56 1
  31   11   14 1
  32   11   57 1
  33   11   58 1
  34   12   59 1
  35   12   60 1
  36   12   61 1
  37   13   62 1
  38   13   63 1
  39   13   64 1
  40   14   15 1
  41   14   19 1
  42   14   20 1
  43   15   16 1
  44   15   65 1
  45   15   66 1
  46   16   17 1
  47   16   67 1
  48   16   68 1
  49   17   18 1
  50   17   69 1
  51   17   70 1
  52   18   21 am
  53   18   24 am
  54   19   71 1
  55   19   72 1
  56   19   73 1
  57   20   74 1
  58   20   75 1
  59   20   76 1
  60   21   22 1
  61   21   30 2
  62   22   23 ar
  63   22   25 ar
  64   23   24 1
  65   23   28 ar
  66   24   29 2
  67   25   26 ar
  68   25   77 1
  69   26   27 ar
  70   26   78 1
  71   27   28 ar
  72   27   79 1
  73   28   80 1
  74   31   32 1
  75   31   39 2
  76   32   33 ar
  77   32   35 ar
  78   33   34 1
  79   33   38 ar
  80   34   40 2
  81   35   36 ar
  82   35   81 1
  83   36   37 ar
  84   36   82 1
  85   37   38 ar
  86   37   83 1
  87   38   84 1
  88   41   85 1
  89   41   86 1
  90   41   87 1

#	End of record

