#	Name: ASD01812115
#	Creating user name:	WinNT
#	Creation time:	15. 06. 2019 19:28

#	Modifying user name:	WinNT
#	Modification time:	15. 06. 2019 19:28

#	Program:	/corina/corina34_cracker 3.40 0067  02.08.2006

@<TRIPOS>MOLECULE
ASD01812115
  55   58    0    0    0
SMALL
NO_CHARGES


@<TRIPOS>ATOM
   1 C1            -0.0169     1.3917     0.0097 C.ar    
   2 C2             0.0021    -0.0041     0.0020 C.ar    
   3 C3             1.2146    -0.6769    -0.0134 C.ar    
   4 C4             2.4223     0.0363    -0.0214 C.ar    
   5 C5             2.3938     1.4325    -0.0128 C.ar    
   6 C6             1.1640     2.0960     0.0022 C.ar    
   7 C7             3.6670    -0.7382    -0.0397 C.2     
   8 C8             4.7505     0.7341    -1.5889 C.3     
   9 C9             4.6301     1.9663    -0.7335 C.2     
  10 N10            3.5360     2.2146    -0.0168 N.am    
  11 S11            5.8466     3.0028    -0.6838 S.2     
  12 C12            3.7288    -1.9752     0.8188 C.3     
  13 C13            5.0501    -2.7047     0.5677 C.3     
  14 C14            5.1129    -3.9606     1.4393 C.3     
  15 C15            5.0221    -3.5630     2.9139 C.3     
  16 C16            3.7008    -2.8335     3.1651 C.3     
  17 C17            3.6380    -1.5776     2.2934 C.3     
  18 N18            4.7018    -0.4461    -0.7268 N.2     
  19 C19            3.5921     0.6881    -2.5874 C.3     
  20 C20           -1.2713    -0.7655     0.0109 C.ar    
  21 C21           -2.4900    -0.0899     0.0268 C.ar    
  22 C22           -3.6714    -0.8033     0.0350 C.ar    
  23 C23           -3.6473    -2.1863     0.0274 C.ar    
  24 C24           -2.4405    -2.8621     0.0120 C.ar    
  25 C25           -1.2530    -2.1588    -0.0026 C.ar    
  26 C26            3.6364     1.9317    -3.4775 C.3     
  27 C27            3.7169    -0.5654    -3.4558 C.3     
  28 H28           -0.9595     1.9187     0.0170 H       
  29 H29            1.2291    -1.7568    -0.0190 H       
  30 H30            1.1408     3.1757     0.0078 H       
  31 H31            5.6982     0.7543    -2.1270 H       
  32 H32            3.5393     3.0047     0.5459 H       
  33 H33            2.8970    -2.6335     0.5681 H       
  34 H34            5.1147    -2.9880    -0.4829 H       
  35 H35            5.8819    -2.0465     0.8184 H       
  36 H36            4.2810    -4.6189     1.1886 H       
  37 H37            6.0541    -4.4803     1.2604 H       
  38 H38            5.0668    -4.4577     3.5349 H       
  39 H39            5.8539    -2.9048     3.1647 H       
  40 H40            2.8690    -3.4917     2.9143 H       
  41 H41            3.6362    -2.5502     4.2156 H       
  42 H42            4.4699    -0.9194     2.5441 H       
  43 H43            2.6968    -1.0579     2.4723 H       
  44 H44            2.6465     0.6624    -2.0459 H       
  45 H45           -2.5099     0.9899     0.0331 H       
  46 H46           -4.6165    -0.2808     0.0478 H       
  47 H47           -4.5742    -2.7406     0.0339 H       
  48 H48           -2.4274    -3.9420     0.0065 H       
  49 H49           -0.3113    -2.6875    -0.0146 H       
  50 H50            2.8112     1.8989    -4.1889 H       
  51 H51            3.5475     2.8247    -2.8589 H       
  52 H52            4.5820     1.9575    -4.0190 H       
  53 H53            3.6853    -1.4513    -2.8216 H       
  54 H54            2.8916    -0.5982    -4.1671 H       
  55 H55            4.6625    -0.5396    -3.9973 H       
@<TRIPOS>BOND
   1    1    2 ar
   2    1    6 ar
   3    1   28 1
   4    2    3 ar
   5    2   20 1
   6    3    4 ar
   7    3   29 1
   8    4    5 ar
   9    4    7 1
  10    5    6 ar
  11    5   10 1
  12    6   30 1
  13    7   12 1
  14    7   18 2
  15    8    9 1
  16    8   18 1
  17    8   19 1
  18    8   31 1
  19    9   10 am
  20    9   11 2
  21   10   32 1
  22   12   13 1
  23   12   17 1
  24   12   33 1
  25   13   14 1
  26   13   34 1
  27   13   35 1
  28   14   15 1
  29   14   36 1
  30   14   37 1
  31   15   16 1
  32   15   38 1
  33   15   39 1
  34   16   17 1
  35   16   40 1
  36   16   41 1
  37   17   42 1
  38   17   43 1
  39   19   26 1
  40   19   27 1
  41   19   44 1
  42   20   21 ar
  43   20   25 ar
  44   21   22 ar
  45   21   45 1
  46   22   23 ar
  47   22   46 1
  48   23   24 ar
  49   23   47 1
  50   24   25 ar
  51   24   48 1
  52   25   49 1
  53   26   50 1
  54   26   51 1
  55   26   52 1
  56   27   53 1
  57   27   54 1
  58   27   55 1

#	End of record

