#	Name: ASD03330421
#	Creating user name:	WinNT
#	Creation time:	15. 06. 2019 20:37

#	Modifying user name:	WinNT
#	Modification time:	15. 06. 2019 20:37

#	Program:	/corina/corina34_cracker 3.40 0067  02.08.2006

@<TRIPOS>MOLECULE
ASD03330421
  65   68    0    0    0
SMALL
NO_CHARGES


@<TRIPOS>ATOM
   1 C1            -0.1673     1.6642    -0.3122 C.3     
   2 N2            -0.1932     0.1976    -0.2221 N.3     
   3 C3             0.3559    -0.4213    -1.4422 C.3     
   4 C4             1.6819     0.2307    -1.7379 C.2     
   5 N5             2.0899     1.4042    -1.1730 N.pl3   
   6 C6             1.2795     2.1659    -0.2186 C.3     
   7 C7             2.6738    -0.1819    -2.5649 C.2     
   8 N8             3.6710     0.7303    -2.4981 N.2     
   9 C9             3.3259     1.6848    -1.6626 C.2     
  10 C10            4.1453     2.8656    -1.3143 C.ar    
  11 C11            2.6672    -1.4039    -3.3884 C.2     
  12 O12            1.7066    -2.1494    -3.3626 O.2     
  13 C13            3.7190    -2.9102    -4.9890 C.3     
  14 N14            3.7256    -1.6954    -4.1702 N.am    
  15 C15            3.0030    -2.6294    -6.3121 C.3     
  16 C16           -1.5524    -0.2893     0.0492 C.3     
  17 C17            4.3038     3.2393     0.0208 C.ar    
  18 C18            5.0693     4.3410     0.3400 C.ar    
  19 C19            5.6813     5.0776    -0.6609 C.ar    
  20 C20            5.5288     4.7140    -1.9874 C.ar    
  21 C21            4.7688     3.6084    -2.3202 C.ar    
  22 F22            4.6200     3.2537    -3.6153 F       
  23 Cl23           6.6432     6.4629    -0.2495 Cl      
  24 C24            5.1596    -3.3444    -5.2687 C.3     
  25 C25            5.1487    -4.6339    -6.0956 C.3     
  26 N26            4.3394    -4.4151    -7.3022 N.am    
  27 C27            2.9676    -3.9108    -7.1509 C.3     
  28 C28            4.8458    -4.6715    -8.5246 C.2     
  29 O29            4.0929    -4.4664    -9.6217 O.3     
  30 O30            5.9818    -5.0879    -8.6364 O.2     
  31 C31            4.7033    -4.7641   -10.9052 C.3     
  32 C32            5.1018    -6.2406   -10.9502 C.3     
  33 C33            3.7034    -4.4713   -12.0256 C.3     
  34 C34            5.9478    -3.8940   -11.0920 C.3     
  35 H35           -0.5982     1.9763    -1.2635 H       
  36 H36           -0.7512     2.0877     0.5051 H       
  37 H37            0.4983    -1.4899    -1.2814 H       
  38 H38           -0.3275    -0.2613    -2.2762 H       
  39 H39            1.3179     3.2264    -0.4675 H       
  40 H40            1.6580     2.0106     0.7916 H       
  41 H41            3.1973    -3.7048    -4.4555 H       
  42 H42            4.4917    -1.1008    -4.1908 H       
  43 H43            1.9843    -2.2978    -6.1113 H       
  44 H44            3.5383    -1.8522    -6.8576 H       
  45 H45           -2.2313     0.0820    -0.7184 H       
  46 H46           -1.5562    -1.3793     0.0413 H       
  47 H47           -1.8781     0.0681     1.0261 H       
  48 H48            3.8273     2.6668     0.8029 H       
  49 H49            5.1918     4.6306     1.3732 H       
  50 H50            6.0078     5.2925    -2.7635 H       
  51 H51            5.6746    -2.5604    -5.8240 H       
  52 H52            5.6759    -3.5216    -4.3252 H       
  53 H53            6.1680    -4.8933    -6.3814 H       
  54 H54            4.7152    -5.4421    -5.5065 H       
  55 H55            2.3563    -4.6601    -6.6478 H       
  56 H56            2.5479    -3.6932    -8.1330 H       
  57 H57            4.2152    -6.8605   -10.8170 H       
  58 H58            5.5600    -6.4640   -11.9136 H       
  59 H59            5.8142    -6.4491   -10.1519 H       
  60 H60            3.4194    -3.4195   -11.9935 H       
  61 H61            4.1616    -4.6948   -12.9890 H       
  62 H62            2.8167    -5.0912   -11.8925 H       
  63 H63            6.6602    -4.1025   -10.2938 H       
  64 H64            6.4060    -4.1174   -12.0555 H       
  65 H65            5.6639    -2.8421   -11.0600 H       
@<TRIPOS>BOND
   1    1    2 1
   2    1    6 1
   3    1   35 1
   4    1   36 1
   5    2    3 1
   6    2   16 1
   7    3    4 1
   8    3   37 1
   9    3   38 1
  10    4    5 1
  11    4    7 2
  12    5    6 1
  13    5    9 1
  14    6   39 1
  15    6   40 1
  16    7    8 1
  17    7   11 1
  18    8    9 2
  19    9   10 1
  20   10   17 ar
  21   10   21 ar
  22   11   12 2
  23   11   14 am
  24   13   14 1
  25   13   24 1
  26   13   15 1
  27   13   41 1
  28   14   42 1
  29   15   27 1
  30   15   43 1
  31   15   44 1
  32   16   45 1
  33   16   46 1
  34   16   47 1
  35   17   18 ar
  36   17   48 1
  37   18   19 ar
  38   18   49 1
  39   19   20 ar
  40   19   23 1
  41   20   21 ar
  42   20   50 1
  43   21   22 1
  44   24   25 1
  45   24   51 1
  46   24   52 1
  47   25   26 1
  48   25   53 1
  49   25   54 1
  50   26   27 1
  51   26   28 am
  52   27   55 1
  53   27   56 1
  54   28   29 1
  55   28   30 2
  56   29   31 1
  57   31   32 1
  58   31   33 1
  59   31   34 1
  60   32   57 1
  61   32   58 1
  62   32   59 1
  63   33   60 1
  64   33   61 1
  65   33   62 1
  66   34   63 1
  67   34   64 1
  68   34   65 1

#	End of record

