#	Name: ASD01901014
#	Creating user name:	WinNT
#	Creation time:	15. 06. 2019 19:53

#	Modifying user name:	WinNT
#	Modification time:	15. 06. 2019 19:53

#	Program:	/corina/corina34_cracker 3.40 0067  02.08.2006

@<TRIPOS>MOLECULE
ASD01901014
  29   30    0    0    0
SMALL
NO_CHARGES


@<TRIPOS>ATOM
   1 C1            -0.0159     1.3190     0.0093 C.ar    
   2 N2             0.0021    -0.0041     0.0020 N.ar    
   3 C3             1.1600    -0.6667    -0.0126 C.ar    
   4 C4             2.3576     0.0618    -0.0202 C.ar    
   5 C5             2.2877     1.4420    -0.0121 C.ar    
   6 N6             1.1017     2.0314     0.0024 N.ar    
   7 N7            -1.2340     1.9764     0.0186 N.pl3   
   8 C8             3.5481     2.2680    -0.0193 C.3     
   9 F9             3.9260     2.5307    -1.3404 F       
  10 F10            3.3182     3.4755     0.6489 F       
  11 F11            4.5703     1.5647     0.6270 F       
  12 C12            1.1797    -2.1389    -0.0203 C.2     
  13 C13            0.0253    -2.8262    -0.0124 C.2     
  14 C14            0.0450    -4.2996    -0.0200 C.ar    
  15 C15           -1.1538    -5.0179    -0.0119 C.ar    
  16 C16           -1.1275    -6.3968    -0.0191 C.ar    
  17 C17            0.0819    -7.0691    -0.0338 C.ar    
  18 C18            1.2730    -6.3646    -0.0419 C.ar    
  19 C19            1.2624    -4.9855    -0.0412 C.ar    
  20 H20            3.3120    -0.4435    -0.0317 H       
  21 H21           -2.0597     1.4674     0.0197 H       
  22 H22           -1.2618     2.9459     0.0240 H       
  23 H23            2.1221    -2.6664    -0.0321 H       
  24 H24           -0.9171    -2.2988    -0.0006 H       
  25 H25           -2.0985    -4.4945     0.0002 H       
  26 H26           -2.0531    -6.9532    -0.0129 H       
  27 H27            0.0963    -8.1490    -0.0386 H       
  28 H28            2.2131    -6.8961    -0.0530 H       
  29 H29            2.1927    -4.4370    -0.0524 H       
@<TRIPOS>BOND
   1    1    2 ar
   2    1    6 ar
   3    1    7 1
   4    2    3 ar
   5    3    4 ar
   6    3   12 1
   7    4    5 ar
   8    4   20 1
   9    5    6 ar
  10    5    8 1
  11    7   21 1
  12    7   22 1
  13    8    9 1
  14    8   10 1
  15    8   11 1
  16   12   13 2
  17   12   23 1
  18   13   14 1
  19   13   24 1
  20   14   15 ar
  21   14   19 ar
  22   15   16 ar
  23   15   25 1
  24   16   17 ar
  25   16   26 1
  26   17   18 ar
  27   17   27 1
  28   18   19 ar
  29   18   28 1
  30   19   29 1

#	End of record

