#	Name: ASD02198633
#	Creating user name:	WinNT
#	Creation time:	15. 06. 2019 20:19

#	Modifying user name:	WinNT
#	Modification time:	15. 06. 2019 20:19

#	Program:	/corina/corina34_cracker 3.40 0067  02.08.2006

@<TRIPOS>MOLECULE
ASD02198633
  51   55    0    0    0
SMALL
NO_CHARGES


@<TRIPOS>ATOM
   1 C1            -0.5840     1.5064     0.3985 C.2     
   2 C2            -0.3181     0.2142     0.0645 C.2     
   3 N3            -1.3217    -0.6788    -0.0987 N.pl3   
   4 N4            -2.5598    -0.3803     0.0454 N.2     
   5 C5            -2.9559     0.8335     0.3674 C.2     
   6 C6            -1.9428     1.8779     0.5731 C.2     
   7 C7            -0.9912    -1.9940    -0.4425 C.ar    
   8 C8            -1.5507    -2.5796    -1.5717 C.ar    
   9 C9            -1.2188    -3.8858    -1.9089 C.ar    
  10 C10           -0.3296    -4.6010    -1.1170 C.ar    
  11 C11            0.2247    -4.0151     0.0053 C.ar    
  12 C12           -0.0985    -2.7148     0.3414 C.ar    
  13 C13           -4.3927     1.1386     0.5240 C.2     
  14 N14           -4.9928     1.6777     1.6270 N.pl3   
  15 N15           -6.3605     1.7999     1.3518 N.2     
  16 C16           -6.5873     1.3578     0.1406 C.2     
  17 C17           -5.3791     0.9388    -0.4167 C.2     
  18 C18           -4.3545     2.0420     2.8194 C.ar    
  19 C19           -4.6891     3.2319     3.4523 C.ar    
  20 C20           -4.0579     3.5883     4.6279 C.ar    
  21 C21           -3.0932     2.7619     5.1745 C.ar    
  22 C22           -2.7575     1.5765     4.5464 C.ar    
  23 C23           -3.3898     1.2113     3.3741 C.ar    
  24 O24           -2.2574     3.0205     0.8732 O.2     
  25 O25            0.4187     2.4100     0.5648 O.3     
  26 C26            1.7543     1.9395     0.3732 C.3     
  27 F27           -2.4155    -1.8808    -2.3392 F       
  28 N28           -1.7794    -4.4800    -3.0441 N.3     
  29 C29           -0.7310    -5.0092    -3.9361 C.3     
  30 C30           -1.6170    -6.2438    -4.1534 C.3     
  31 C31           -2.1727    -5.8749    -2.7708 C.3     
  32 F32           -2.5401    -6.1100    -5.1962 F       
  33 F33           -0.9157    -7.4539    -4.1847 F       
  34 H34            0.7054    -0.1021    -0.0722 H       
  35 H35           -0.0714    -5.6166    -1.3783 H       
  36 H36            0.9157    -4.5741     0.6189 H       
  37 H37            0.3369    -2.2605     1.2192 H       
  38 H38           -7.5500     1.3268    -0.3480 H       
  39 H39           -5.2426     0.5256    -1.4052 H       
  40 H40           -5.4419     3.8781     3.0255 H       
  41 H41           -4.3176     4.5136     5.1206 H       
  42 H42           -2.6008     3.0429     6.0937 H       
  43 H43           -2.0034     0.9334     4.9756 H       
  44 H44           -3.1274     0.2852     2.8842 H       
  45 H45            1.9622     1.1376     1.0816 H       
  46 H46            1.8647     1.5635    -0.6439 H       
  47 H47            2.4549     2.7586     0.5358 H       
  48 H48           -0.5869    -4.4140    -4.8377 H       
  49 H49            0.2046    -5.2311    -3.4227 H       
  50 H50           -1.6219    -6.3278    -1.9465 H       
  51 H51           -3.2505    -6.0133    -2.6849 H       
@<TRIPOS>BOND
   1    1    2 2
   2    1   25 1
   3    1    6 1
   4    2    3 1
   5    2   34 1
   6    3    4 1
   7    3    7 1
   8    4    5 2
   9    5    6 1
  10    5   13 1
  11    6   24 2
  12    7    8 ar
  13    7   12 ar
  14    8    9 ar
  15    8   27 1
  16    9   10 ar
  17    9   28 1
  18   10   11 ar
  19   10   35 1
  20   11   12 ar
  21   11   36 1
  22   12   37 1
  23   13   14 1
  24   13   17 2
  25   14   15 1
  26   14   18 1
  27   15   16 2
  28   16   17 1
  29   16   38 1
  30   17   39 1
  31   18   19 ar
  32   18   23 ar
  33   19   20 ar
  34   19   40 1
  35   20   21 ar
  36   20   41 1
  37   21   22 ar
  38   21   42 1
  39   22   23 ar
  40   22   43 1
  41   23   44 1
  42   25   26 1
  43   26   45 1
  44   26   46 1
  45   26   47 1
  46   28   29 1
  47   28   31 1
  48   29   30 1
  49   29   48 1
  50   29   49 1
  51   30   31 1
  52   30   32 1
  53   30   33 1
  54   31   50 1
  55   31   51 1

#	End of record

