#	Name: ASD00431421
#	Creating user name:	WinNT
#	Creation time:	15. 06. 2019 18:35

#	Modifying user name:	WinNT
#	Modification time:	15. 06. 2019 18:35

#	Program:	/corina/corina34_cracker 3.40 0067  02.08.2006

@<TRIPOS>MOLECULE
ASD00431421
  57   58    0    0    0
SMALL
NO_CHARGES


@<TRIPOS>ATOM
   1 C1            -0.4658     0.5179     1.1503 C.2     
   2 N2             0.0003    -0.0072    -0.0002 N.am    
   3 O3             0.1848     0.4172     2.1717 O.2     
   4 O4            -1.6499     1.1589     1.1667 O.3     
   5 C5             1.2710    -0.5981    -0.0368 C.ar    
   6 C6             1.9788    -0.6513    -1.2316 C.ar    
   7 C7             3.2311    -1.2334    -1.2664 C.ar    
   8 C8             3.7817    -1.7648    -0.1087 C.ar    
   9 C9             3.0750    -1.7121     1.0838 C.ar    
  10 C10            1.8251    -1.1253     1.1213 C.ar    
  11 Cl11           1.2894     0.0131    -2.6797 Cl      
  12 O12            5.0142    -2.3376    -0.1434 O.3     
  13 S13            7.6803    -2.0974    -0.6256 S.3     
  14 C14            6.0763    -1.5443    -0.4173 C.2     
  15 N15            6.0217    -0.2546    -0.5600 N.2     
  16 C16            7.1471     0.3670    -0.8251 C.2     
  17 C17            8.2243    -0.4464    -0.9130 C.2     
  18 C18            9.6043    -0.0272    -1.1981 C.2     
  19 N19            9.8927     1.3115    -1.4045 N.pl3   
  20 N20           10.5584    -0.9174    -1.2568 N.2     
  21 O21           11.7017    -0.5701    -1.4931 O.3     
  22 C22           12.6332    -1.5333    -1.5394 C.2     
  23 C23           14.0696    -1.1792    -1.8265 C.3     
  24 C24           14.5831    -0.2198    -0.7511 C.3     
  25 O25           12.3199    -2.6891    -1.3502 O.2     
  26 N26           14.8830    -2.3977    -1.8227 N.am    
  27 C27           16.0363    -2.4401    -2.5187 C.2     
  28 O28           16.4008    -1.4697    -3.1482 O.2     
  29 C29           16.8731    -3.6935    -2.5148 C.3     
  30 C30           -2.0894     1.6991     2.4408 C.3     
  31 C31           -1.0639     2.7169     2.9442 C.3     
  32 C32           -3.4449     2.3861     2.2632 C.3     
  33 C33           -2.2225     0.5636     3.4576 C.3     
  34 H34           -0.5435     0.0238    -0.8028 H       
  35 H35            3.7815    -1.2753    -2.1947 H       
  36 H36            3.5041    -2.1262     1.9842 H       
  37 H37            1.2772    -1.0806     2.0509 H       
  38 H38            7.2077     1.4366    -0.9619 H       
  39 H39            9.1842     1.9726    -1.3609 H       
  40 H40           10.8032     1.5881    -1.5926 H       
  41 H41           14.1374    -0.7002    -2.8033 H       
  42 H42           15.6221     0.0363    -0.9588 H       
  43 H43           13.9779     0.6868    -0.7540 H       
  44 H44           14.5153    -0.6989     0.2256 H       
  45 H45           14.5915    -3.1738    -1.3192 H       
  46 H46           16.3888    -4.4517    -1.8995 H       
  47 H47           16.9764    -4.0646    -3.5344 H       
  48 H48           17.8593    -3.4706    -2.1076 H       
  49 H49           -0.9691     3.5258     2.2199 H       
  50 H50           -1.3938     3.1224     3.9007 H       
  51 H51           -0.0982     2.2274     3.0708 H       
  52 H52           -4.1755     1.6610     1.9046 H       
  53 H53           -3.7748     2.7916     3.2196 H       
  54 H54           -3.3501     3.1950     1.5388 H       
  55 H55           -1.2568     0.0742     3.5842 H       
  56 H56           -2.5524     0.9691     4.4141 H       
  57 H57           -2.9530    -0.1615     3.0990 H       
@<TRIPOS>BOND
   1    1    2 am
   2    1    3 2
   3    1    4 1
   4    2    5 1
   5    2   34 1
   6    4   30 1
   7    5    6 ar
   8    5   10 ar
   9    6    7 ar
  10    6   11 1
  11    7    8 ar
  12    7   35 1
  13    8    9 ar
  14    8   12 1
  15    9   10 ar
  16    9   36 1
  17   10   37 1
  18   12   14 1
  19   13   14 1
  20   13   17 1
  21   14   15 2
  22   15   16 1
  23   16   17 2
  24   16   38 1
  25   17   18 1
  26   18   19 1
  27   18   20 2
  28   19   39 1
  29   19   40 1
  30   20   21 1
  31   21   22 1
  32   22   23 1
  33   22   25 2
  34   23   24 1
  35   23   26 1
  36   23   41 1
  37   24   42 1
  38   24   43 1
  39   24   44 1
  40   26   27 am
  41   26   45 1
  42   27   28 2
  43   27   29 1
  44   29   46 1
  45   29   47 1
  46   29   48 1
  47   30   31 1
  48   30   33 1
  49   30   32 1
  50   31   49 1
  51   31   50 1
  52   31   51 1
  53   32   52 1
  54   32   53 1
  55   32   54 1
  56   33   55 1
  57   33   56 1
  58   33   57 1

#	End of record

