#	Name: ASD05430316
#	Creating user name:	WinNT
#	Creation time:	15. 06. 2019 21:00

#	Modifying user name:	WinNT
#	Modification time:	15. 06. 2019 21:00

#	Program:	/corina/corina34_cracker 3.40 0067  02.08.2006

@<TRIPOS>MOLECULE
ASD05430316
  56   60    0    0    0
SMALL
NO_CHARGES


@<TRIPOS>ATOM
   1 C1            -0.0557     1.7369     0.2036 C.3     
   2 C2            -0.2429     0.2448     0.3657 C.3     
   3 C3             0.2199    -0.4013    -0.9542 C.3     
   4 O4             1.5346     0.0034    -1.3198 O.3     
   5 C5             1.7890     1.4214    -1.3803 C.3     
   6 C6             1.4741     1.9605    -0.0015 C.3     
   7 O7             1.5304     3.3571     0.2446 O.3     
   8 N8             0.6150     3.5666     1.3265 N.2     
   9 C9            -0.3180     2.6400     1.3649 C.2     
  10 C10            2.2569     1.2062     1.0421 C.ar    
  11 C11            3.2126     0.2847     0.6565 C.ar    
  12 C12            2.0229     1.4404     2.3843 C.ar    
  13 C13            2.7408     0.7499     3.3423 C.ar    
  14 C14            3.6945    -0.1771     2.9573 C.ar    
  15 C15            3.9314    -0.4073     1.6127 C.ar    
  16 F16            4.3969    -0.8527     3.8929 F       
  17 C17           -1.3955     2.5185     2.3462 C.2     
  18 C18           -1.5025     3.4180     3.3447 C.2     
  19 C19           -2.5866     3.2959     4.3320 C.ar    
  20 C20           -3.5074     2.2470     4.2362 C.ar    
  21 C21           -2.6958     4.2247     5.3718 C.ar    
  22 C22           -3.7160     4.1052     6.2962 C.ar    
  23 C23           -4.6335     3.0603     6.1910 C.ar    
  24 C24           -4.5218     2.1343     5.1616 C.ar    
  25 N25           -5.6674     2.9408     7.1295 N.pl3   
  26 C26           -5.5377     2.9658     8.4813 C.2     
  27 N27           -6.7205     2.8254     9.0151 N.2     
  28 C28           -7.6360     2.7073     8.0420 C.2     
  29 C29           -7.0015     2.7825     6.8565 C.2     
  30 O30           -3.8249     5.0061     7.3086 O.3     
  31 C31           -2.8503     6.0502     7.3555 C.3     
  32 C32           -9.1190     2.5281     8.2408 C.3     
  33 H33           -0.6019     2.0852    -0.6731 H       
  34 H34            0.3652    -0.1201     1.1934 H       
  35 H35           -1.2939     0.0175     0.5443 H       
  36 H36            0.2018    -1.4854    -0.8426 H       
  37 H37           -0.4710    -0.1177    -1.7481 H       
  38 H38            2.8351     1.6050    -1.6252 H       
  39 H39            1.1410     1.8876    -2.1226 H       
  40 H40            3.3972     0.1052    -0.3923 H       
  41 H41            1.2789     2.1636     2.6844 H       
  42 H42            2.5583     0.9336     4.3908 H       
  43 H43            4.6748    -1.1304     1.3112 H       
  44 H44           -2.1056     1.7083     2.2710 H       
  45 H45           -0.7924     4.2283     3.4199 H       
  46 H46           -3.4232     1.5258     3.4367 H       
  47 H47           -1.9843     5.0332     5.4523 H       
  48 H48           -5.2348     1.3269     5.0837 H       
  49 H49           -4.6110     3.0824     9.0237 H       
  50 H50           -7.4557     2.7225     5.8784 H       
  51 H51           -1.8561     5.6149     7.4565 H       
  52 H52           -2.8995     6.6347     6.4368 H       
  53 H53           -3.0520     6.6973     8.2091 H       
  54 H54           -9.6009     3.5049     8.2814 H       
  55 H55           -9.5302     1.9543     7.4102 H       
  56 H56           -9.2986     1.9953     9.1746 H       
@<TRIPOS>BOND
   1    1    2 1
   2    1    6 1
   3    1    9 1
   4    1   33 1
   5    2    3 1
   6    2   34 1
   7    2   35 1
   8    3    4 1
   9    3   36 1
  10    3   37 1
  11    4    5 1
  12    5    6 1
  13    5   38 1
  14    5   39 1
  15    6    7 1
  16    6   10 1
  17    7    8 1
  18    8    9 2
  19    9   17 1
  20   10   11 ar
  21   10   12 ar
  22   11   15 ar
  23   11   40 1
  24   12   13 ar
  25   12   41 1
  26   13   14 ar
  27   13   42 1
  28   14   15 ar
  29   14   16 1
  30   15   43 1
  31   17   18 2
  32   17   44 1
  33   18   19 1
  34   18   45 1
  35   19   20 ar
  36   19   21 ar
  37   20   24 ar
  38   20   46 1
  39   21   22 ar
  40   21   47 1
  41   22   23 ar
  42   22   30 1
  43   23   24 ar
  44   23   25 1
  45   24   48 1
  46   25   26 1
  47   25   29 1
  48   26   27 2
  49   26   49 1
  50   27   28 1
  51   28   29 2
  52   28   32 1
  53   29   50 1
  54   30   31 1
  55   31   51 1
  56   31   52 1
  57   31   53 1
  58   32   54 1
  59   32   55 1
  60   32   56 1

#	End of record

