#	Name: ASD05740236
#	Creating user name:	WinNT
#	Creation time:	15. 06. 2019 21:03

#	Modifying user name:	WinNT
#	Modification time:	15. 06. 2019 21:03

#	Program:	/corina/corina34_cracker 3.40 0067  02.08.2006

@<TRIPOS>MOLECULE
ASD05740236
  63   67    0    0    0
SMALL
NO_CHARGES


@<TRIPOS>ATOM
   1 C1             0.3286     1.2789    -0.7381 C.3     
   2 N2            -0.6152     1.7203     0.2982 N.3     
   3 C3            -1.8116     0.9978     0.2275 C.ar    
   4 C4            -2.8379     1.2646     1.1243 C.ar    
   5 C5            -4.0183     0.5517     1.0545 C.ar    
   6 C6            -4.1791    -0.4323     0.0879 C.ar    
   7 C7            -3.1527    -0.6994    -0.8085 C.ar    
   8 C8            -1.9747     0.0180    -0.7430 C.ar    
   9 N9            -5.3764    -1.1558     0.0175 N.pl3   
  10 C10           -6.5778    -0.5312     0.2901 C.ar    
  11 N11           -6.5829     0.7807     0.5000 N.ar    
  12 N12           -7.6822    -1.2623     0.3272 N.ar    
  13 C13           -8.8535    -0.6956     0.5861 C.ar    
  14 C14           -8.8967     0.6966     0.8201 C.ar    
  15 C15           -7.7042     1.4269     0.7645 C.ar    
  16 N16          -10.0134    -1.4252     0.6309 N.am    
  17 C17          -11.1924    -0.8342     0.8940 C.2     
  18 C18          -11.2920     0.5511     1.1342 C.2     
  19 C19          -10.1798     1.3312     1.1059 C.2     
  20 C20           -9.9678    -2.8692     0.3882 C.3     
  21 O21          -12.2028    -1.5152     0.9251 O.2     
  22 C22           -9.8856    -3.5976     1.7049 C.ar    
  23 C23           -9.9713    -4.9763     1.7386 C.ar    
  24 C24           -0.0134     1.6130     1.6347 C.3     
  25 C25            1.2473     2.4787     1.6945 C.3     
  26 N26            2.1911     2.0373     0.6581 N.3     
  27 C27            1.5893     2.1446    -0.6783 C.3     
  28 C28           -9.8964    -5.6448     2.9466 C.ar    
  29 C29           -9.7357    -4.9350     4.1217 C.ar    
  30 C30           -9.6493    -3.5559     4.0904 C.ar    
  31 C31           -9.7184    -2.8858     2.8809 C.ar    
  32 S32          -10.1766    -5.8828     0.2417 S.o     
  33 F33           -9.6337    -1.5379     2.8491 F       
  34 C34            3.4470     2.7957     0.7323 C.3     
  35 C35          -11.9565    -5.7425    -0.0794 C.3     
  36 O36           -9.4614    -5.1017    -0.7057 O.2     
  37 H37            0.5951     0.2360    -0.5669 H       
  38 H38           -0.1355     1.3796    -1.7193 H       
  39 H39           -2.7126     2.0294     1.8765 H       
  40 H40           -4.8164     0.7592     1.7519 H       
  41 H41           -3.2775    -1.4652    -1.5597 H       
  42 H42           -1.1765    -0.1898    -1.4402 H       
  43 H43           -5.3619    -2.0955    -0.2228 H       
  44 H44           -7.7001     2.4928     0.9385 H       
  45 H45          -12.2550     0.9937     1.3422 H       
  46 H46          -10.2437     2.3938     1.2884 H       
  47 H47          -10.8691    -3.1772    -0.1418 H       
  48 H48           -9.0920    -3.1088    -0.2149 H       
  49 H49           -0.7268     1.9573     2.3834 H       
  50 H50            0.2492     0.5739     1.8329 H       
  51 H51            0.9808     3.5217     1.5232 H       
  52 H52            1.7114     2.3780     2.6756 H       
  53 H53            2.3027     1.8003    -1.4271 H       
  54 H54            1.3267     3.1837    -0.8765 H       
  55 H55           -9.9638    -6.7224     2.9720 H       
  56 H56           -9.6781    -5.4582     5.0648 H       
  57 H57           -9.5242    -3.0014     5.0088 H       
  58 H58            3.9054     2.6447     1.7097 H       
  59 H59            4.1273     2.4490    -0.0455 H       
  60 H60            3.2402     3.8561     0.5879 H       
  61 H61          -12.2407    -4.6904    -0.0969 H       
  62 H62          -12.1890    -6.1977    -1.0421 H       
  63 H63          -12.5092    -6.2551     0.7079 H       
@<TRIPOS>BOND
   1    1    2 1
   2    1   27 1
   3    1   37 1
   4    1   38 1
   5    2    3 1
   6    2   24 1
   7    3    4 ar
   8    3    8 ar
   9    4    5 ar
  10    4   39 1
  11    5    6 ar
  12    5   40 1
  13    6    7 ar
  14    6    9 1
  15    7    8 ar
  16    7   41 1
  17    8   42 1
  18    9   10 1
  19    9   43 1
  20   10   11 ar
  21   10   12 ar
  22   11   15 ar
  23   12   13 ar
  24   13   14 ar
  25   13   16 1
  26   14   15 ar
  27   14   19 1
  28   15   44 1
  29   16   17 am
  30   16   20 1
  31   17   18 1
  32   17   21 2
  33   18   19 2
  34   18   45 1
  35   19   46 1
  36   20   22 1
  37   20   47 1
  38   20   48 1
  39   22   23 ar
  40   22   31 ar
  41   23   28 ar
  42   23   32 1
  43   24   25 1
  44   24   49 1
  45   24   50 1
  46   25   26 1
  47   25   51 1
  48   25   52 1
  49   26   27 1
  50   26   34 1
  51   27   53 1
  52   27   54 1
  53   28   29 ar
  54   28   55 1
  55   29   30 ar
  56   29   56 1
  57   30   31 ar
  58   30   57 1
  59   31   33 1
  60   32   35 1
  61   32   36 2
  62   34   58 1
  63   34   59 1
  64   34   60 1
  65   35   61 1
  66   35   62 1
  67   35   63 1

#	End of record

