#	Name: ASD01410377
#	Creating user name:	WinNT
#	Creation time:	15. 06. 2019 19:17

#	Modifying user name:	WinNT
#	Modification time:	15. 06. 2019 19:17

#	Program:	/corina/corina34_cracker 3.40 0067  02.08.2006

@<TRIPOS>MOLECULE
ASD01410377
  31   32    0    0    0
SMALL
NO_CHARGES


@<TRIPOS>ATOM
   1 S1             0.1351     1.7811     0.8718 S.3     
   2 C2             0.2090     0.0182     1.0378 C.2     
   3 N3             1.4447    -0.3539     0.6846 N.am    
   4 C4             2.3189     0.5643     0.3076 C.2     
   5 C5             1.8144     1.9416     0.3201 C.2     
   6 O6             3.4567     0.2872    -0.0243 O.2     
   7 S7            -1.0581    -1.0117     1.5524 S.2     
   8 C8             2.4789     3.0777    -0.0142 C.2     
   9 C9             1.7571     4.3531    -0.0957 C.ar    
  10 C10            2.4559     5.5634     0.0023 C.ar    
  11 C11            1.7773     6.7523    -0.0744 C.ar    
  12 C12            0.3960     6.7580    -0.2487 C.ar    
  13 C13           -0.3027     5.5577    -0.3466 C.ar    
  14 C14            0.3681     4.3639    -0.2773 C.ar    
  15 N15           -0.2887     7.9677    -0.3251 N.pl3   
  16 C16            0.4233     9.2279    -0.0990 C.3     
  17 C17           -1.7213     7.9804    -0.6314 C.3     
  18 N18            1.8010    -1.6723     0.7134 N.3     
  19 H19            3.5385     3.0428    -0.2201 H       
  20 H20            3.5273     5.5599     0.1383 H       
  21 H21            2.3151     7.6858     0.0010 H       
  22 H22           -1.3741     5.5671    -0.4818 H       
  23 H23           -0.1741     3.4334    -0.3578 H       
  24 H24            0.8149     9.5989    -1.0462 H       
  25 H25           -0.2629     9.9622     0.3230 H       
  26 H26            1.2475     9.0603     0.5942 H       
  27 H27           -2.0922     6.9565    -0.6769 H       
  28 H28           -2.2545     8.5257     0.1473 H       
  29 H29           -1.8830     8.4685    -1.5925 H       
  30 H30            1.0314    -2.2482     1.0201 H       
  31 H31            2.1423    -1.9744    -0.1868 H       
@<TRIPOS>BOND
   1    1    2 1
   2    1    5 1
   3    2    3 am
   4    2    7 2
   5    3    4 am
   6    3   18 1
   7    4    5 1
   8    4    6 2
   9    5    8 2
  10    8    9 1
  11    8   19 1
  12    9   10 ar
  13    9   14 ar
  14   10   11 ar
  15   10   20 1
  16   11   12 ar
  17   11   21 1
  18   12   13 ar
  19   12   15 1
  20   13   14 ar
  21   13   22 1
  22   14   23 1
  23   15   16 1
  24   15   17 1
  25   16   24 1
  26   16   25 1
  27   16   26 1
  28   17   27 1
  29   17   28 1
  30   17   29 1
  31   18   30 1
  32   18   31 1

#	End of record

