#	Name: ASD01910792
#	Creating user name:	WinNT
#	Creation time:	15. 06. 2019 19:56

#	Modifying user name:	WinNT
#	Modification time:	15. 06. 2019 19:56

#	Program:	/corina/corina34_cracker 3.40 0067  02.08.2006

@<TRIPOS>MOLECULE
ASD01910792
  56   59    0    0    0
SMALL
NO_CHARGES


@<TRIPOS>ATOM
   1 C1            -0.1061     1.7681     0.4088 C.ar    
   2 C2            -0.0090     0.3832     0.4238 C.ar    
   3 C3            -1.1738    -0.3610     0.3678 C.ar    
   4 C4            -2.3959     0.2996     0.2987 C.ar    
   5 N5            -2.4470     1.6228     0.2861 N.ar    
   6 C6            -1.3528     2.3579     0.3447 C.ar    
   7 N7            -3.5742    -0.4358     0.2419 N.3     
   8 C8            -4.7445     0.4495     0.1739 C.3     
   9 C9            -6.0028    -0.3906    -0.0692 C.3     
  10 N10           -6.0731    -1.4362     0.9628 N.am    
  11 C11           -4.8863    -2.2763     1.1841 C.3     
  12 C12           -3.6719    -1.3620     1.3779 C.3     
  13 C13           -7.1954    -1.6199     1.6861 C.2     
  14 C14           -7.2889    -2.7522     2.6289 C.ar    
  15 O15           -8.1308    -0.8532     1.5622 O.2     
  16 C16           -7.9079    -2.5789     3.8707 C.ar    
  17 C17           -7.9979    -3.6326     4.7545 C.ar    
  18 C18           -7.4752    -4.8730     4.4192 C.ar    
  19 C19           -6.8516    -5.0592     3.1746 C.ar    
  20 C20           -6.7650    -3.9962     2.2789 C.ar    
  21 C21           -6.3108    -6.3386     2.8261 C.1     
  22 C22           -5.8674    -7.3874     2.5404 C.1     
  23 C23           -5.3266    -8.6667     2.1919 C.ar    
  24 C24           -4.7059    -8.8530     0.9538 C.ar    
  25 C25           -4.1870   -10.0878     0.6253 C.ar    
  26 C26           -4.2801   -11.1411     1.5180 C.ar    
  27 C27           -4.8938   -10.9643     2.7456 C.ar    
  28 C28           -5.4118    -9.7335     3.0905 C.ar    
  29 O29           -7.5660    -5.9059     5.2935 O.3     
  30 C30           -8.2126    -5.6451     6.5409 C.3     
  31 C31            1.1363     2.6190     0.4681 C.3     
  32 F32            1.5901     2.8728    -0.8307 F       
  33 F33            0.8423     3.8297     1.1043 F       
  34 F34            2.1298     1.9442     1.1856 F       
  35 H35            0.9543    -0.1022     0.4777 H       
  36 H36           -1.1347    -1.4403     0.3772 H       
  37 H37           -1.4330     3.4348     0.3322 H       
  38 H38           -4.8453     0.9920     1.1139 H       
  39 H39           -4.6170     1.1587    -0.6440 H       
  40 H40           -6.8856     0.2457    -0.0065 H       
  41 H41           -5.9500    -0.8522    -1.0552 H       
  42 H42           -5.0309    -2.8868     2.0755 H       
  43 H43           -4.7262    -2.9192     0.3186 H       
  44 H44           -2.7666    -1.9666     1.4332 H       
  45 H45           -3.7877    -0.7943     2.3011 H       
  46 H46           -8.3167    -1.6158     4.1383 H       
  47 H47           -8.4770    -3.4918     5.7122 H       
  48 H48           -6.2870    -4.1328     1.3201 H       
  49 H49           -4.6331    -8.0321     0.2558 H       
  50 H50           -3.7070   -10.2333    -0.3312 H       
  51 H51           -3.8722   -12.1059     1.2551 H       
  52 H52           -4.9634   -11.7910     3.4370 H       
  53 H53           -5.8905    -9.5969     4.0490 H       
  54 H54           -8.2173    -6.5528     7.1444 H       
  55 H55           -7.6753    -4.8589     7.0712 H       
  56 H56           -9.2384    -5.3249     6.3584 H       
@<TRIPOS>BOND
   1    1    2 ar
   2    1   31 1
   3    1    6 ar
   4    2    3 ar
   5    2   35 1
   6    3    4 ar
   7    3   36 1
   8    4    5 ar
   9    4    7 1
  10    5    6 ar
  11    6   37 1
  12    7    8 1
  13    7   12 1
  14    8    9 1
  15    8   38 1
  16    8   39 1
  17    9   10 1
  18    9   40 1
  19    9   41 1
  20   10   11 1
  21   10   13 am
  22   11   12 1
  23   11   42 1
  24   11   43 1
  25   12   44 1
  26   12   45 1
  27   13   14 1
  28   13   15 2
  29   14   16 ar
  30   14   20 ar
  31   16   17 ar
  32   16   46 1
  33   17   18 ar
  34   17   47 1
  35   18   19 ar
  36   18   29 1
  37   19   20 ar
  38   19   21 1
  39   20   48 1
  40   21   22 3
  41   22   23 1
  42   23   24 ar
  43   23   28 ar
  44   24   25 ar
  45   24   49 1
  46   25   26 ar
  47   25   50 1
  48   26   27 ar
  49   26   51 1
  50   27   28 ar
  51   27   52 1
  52   28   53 1
  53   29   30 1
  54   30   54 1
  55   30   55 1
  56   30   56 1
  57   31   32 1
  58   31   33 1
  59   31   34 1

#	End of record

