#	Name: ASD01916436
#	Creating user name:	WinNT
#	Creation time:	15. 06. 2019 20:07

#	Modifying user name:	WinNT
#	Modification time:	15. 06. 2019 20:07

#	Program:	/corina/corina34_cracker 3.40 0067  02.08.2006

@<TRIPOS>MOLECULE
ASD01916436
  33   34    0    0    0
SMALL
NO_CHARGES


@<TRIPOS>ATOM
   1 C1            -0.0187     1.5021     0.0185 C.2     
   2 C2             0.0011    -0.0045    -0.0114 C.3     
   3 C3             1.4501    -0.4956    -0.0131 C.3     
   4 C4             1.4694    -1.9671    -0.0423 C.1     
   5 C5             1.4848    -3.1408    -0.0656 C.1     
   6 O6             1.0236     2.1220     0.0366 O.2     
   7 N7            -1.1946     2.1607     0.0195 N.am    
   8 C8             1.5036    -4.5724    -0.0940 C.ar    
   9 C9             2.7241    -5.2488    -0.1007 C.ar    
  10 C10            2.7255    -6.6320    -0.1282 C.ar    
  11 C11            1.5065    -7.2959    -0.1482 C.ar    
  12 C12            0.3342    -6.5630    -0.1401 C.ar    
  13 N13            0.3593    -5.2462    -0.1083 N.ar    
  14 C14           -1.2153     3.5564     0.1329 C.ar    
  15 C15           -2.3326     4.1965     0.6587 C.ar    
  16 C16           -2.3489     5.5747     0.7689 C.ar    
  17 C17           -1.2559     6.3153     0.3567 C.ar    
  18 C18           -0.1445     5.6810    -0.1662 C.ar    
  19 C19           -0.1190     4.3036    -0.2739 C.ar    
  20 F20           -3.4003     3.4729     1.0609 F       
  21 H21           -0.5129    -0.3921     0.8682 H       
  22 H22           -0.5030    -0.3567    -0.9114 H       
  23 H23            1.9641    -0.1079    -0.8927 H       
  24 H24            1.9542    -0.1434     0.8868 H       
  25 H25           -2.0265     1.6680    -0.0584 H       
  26 H26            3.6543    -4.7004    -0.0850 H       
  27 H27            3.6543    -7.1830    -0.1344 H       
  28 H28            1.4743    -8.3752    -0.1702 H       
  29 H29           -0.6154    -7.0772    -0.1560 H       
  30 H30           -3.2158     6.0733     1.1767 H       
  31 H31           -1.2709     7.3917     0.4433 H       
  32 H32            0.7070     6.2627    -0.4870 H       
  33 H33            0.7519     3.8092    -0.6783 H       
@<TRIPOS>BOND
   1    1    2 1
   2    1    6 2
   3    1    7 am
   4    2    3 1
   5    2   21 1
   6    2   22 1
   7    3    4 1
   8    3   23 1
   9    3   24 1
  10    4    5 3
  11    5    8 1
  12    7   14 1
  13    7   25 1
  14    8    9 ar
  15    8   13 ar
  16    9   10 ar
  17    9   26 1
  18   10   11 ar
  19   10   27 1
  20   11   12 ar
  21   11   28 1
  22   12   13 ar
  23   12   29 1
  24   14   15 ar
  25   14   19 ar
  26   15   16 ar
  27   15   20 1
  28   16   17 ar
  29   16   30 1
  30   17   18 ar
  31   17   31 1
  32   18   19 ar
  33   18   32 1
  34   19   33 1

#	End of record

