#	Name: ASD03330595
#	Creating user name:	WinNT
#	Creation time:	15. 06. 2019 20:37

#	Modifying user name:	WinNT
#	Modification time:	15. 06. 2019 20:37

#	Program:	/corina/corina34_cracker 3.40 0067  02.08.2006

@<TRIPOS>MOLECULE
ASD03330595
  75   78    0    0    0
SMALL
NO_CHARGES


@<TRIPOS>ATOM
   1 C1             0.1554     1.8674    -1.1271 C.2     
   2 N2             0.1333     0.5656    -1.4980 N.pl3   
   3 C3             1.4078     2.1314    -0.6604 C.2     
   4 N4             2.1346     0.9980    -0.7684 N.2     
   5 C5             1.3783     0.0534    -1.2762 C.2     
   6 C6             1.8042    -1.3348    -1.5602 C.ar    
   7 C7             1.8844     3.4223    -0.1331 C.2     
   8 O8             1.1309     4.3759    -0.0871 O.2     
   9 C9             3.6291     4.8295     0.8224 C.3     
  10 N10            3.1553     3.5462     0.2982 N.am    
  11 C11            3.2701     4.9384     2.3057 C.3     
  12 C12            3.8493     3.7398     3.0599 C.3     
  13 C13            3.8537     6.2317     2.8781 C.3     
  14 C14            1.7482     4.9526     2.4624 C.3     
  15 C15            5.1247     4.9172     0.6598 C.2     
  16 N16            5.7351     6.1187     0.6765 N.am    
  17 O17            5.7791     3.9066     0.5140 O.2     
  18 C18            7.1725     6.2139     0.4098 C.3     
  19 C19           -1.0325    -0.1483    -2.0262 C.3     
  20 C20           -1.6928     0.7030    -3.1150 C.3     
  21 C21           -2.7047     1.6536    -2.4829 C.3     
  22 N22           -2.2601     2.0881    -1.1570 N.3     
  23 C23           -0.9954     2.8339    -1.2358 C.3     
  24 C24           -3.2989     2.8824    -0.4876 C.3     
  25 C25            3.5197    -2.9013    -2.1681 C.ar    
  26 C26            2.6012    -3.9328    -2.0916 C.ar    
  27 C27            1.2846    -3.6711    -1.7562 C.ar    
  28 C28            0.8812    -2.3789    -1.4903 C.ar    
  29 C29            3.1288    -1.6044    -1.9044 C.ar    
  30 S30            5.1941    -3.2450    -2.5960 S.o2    
  31 O31            5.9697    -2.1759    -2.0719 O.2     
  32 O32            5.4221    -4.6072    -2.2619 O.2     
  33 N33            5.3097    -3.1422    -4.2448 N.am    
  34 C34            5.6312    -1.9269    -5.0071 C.3     
  35 C35            5.1134    -4.2557    -5.1909 C.3     
  36 C36            4.7130    -3.5769    -6.5245 C.3     
  37 C37            5.6013    -2.3033    -6.5034 C.3     
  38 H38            3.1556     5.6434     0.2733 H       
  39 H39            3.7562     2.7857     0.2615 H       
  40 H40            4.9335     3.7297     2.9483 H       
  41 H41            3.5935     3.8174     4.1166 H       
  42 H42            3.4335     2.8185     2.6521 H       
  43 H43            3.4611     7.0841     2.3237 H       
  44 H44            3.5760     6.3221     3.9282 H       
  45 H45            4.9400     6.2102     2.7902 H       
  46 H46            1.3324     4.0312     2.0546 H       
  47 H47            1.4924     5.0301     3.5191 H       
  48 H48            1.3355     5.8064     1.9250 H       
  49 H49            5.2227     6.9205     0.8650 H       
  50 H50            7.4843     7.2568     0.4663 H       
  51 H51            7.7189     5.6306     1.1510 H       
  52 H52            7.3838     5.8249    -0.5863 H       
  53 H53           -0.7149    -1.1005    -2.4510 H       
  54 H54           -1.7455    -0.3272    -1.2213 H       
  55 H55           -0.9295     1.2806    -3.6364 H       
  56 H56           -2.2020     0.0518    -3.8255 H       
  57 H57           -2.8245     2.5268    -3.1242 H       
  58 H58           -3.6641     1.1447    -2.3898 H       
  59 H59           -0.9453     3.5536    -0.4187 H       
  60 H60           -0.9411     3.3594    -2.1893 H       
  61 H61           -4.2002     2.2800    -0.3740 H       
  62 H62           -2.9427     3.1922     0.4949 H       
  63 H63           -3.5245     3.7644    -1.0870 H       
  64 H64            2.9130    -4.9466    -2.2949 H       
  65 H65            0.5721    -4.4806    -1.6985 H       
  66 H66           -0.1467    -2.1759    -1.2283 H       
  67 H67            3.8467    -0.7999    -1.9648 H       
  68 H68            4.8891    -1.1548    -4.8041 H       
  69 H69            6.6245    -1.5702    -4.7344 H       
  70 H70            6.0398    -4.8166    -5.3140 H       
  71 H71            4.3149    -4.9117    -4.8444 H       
  72 H72            4.9611    -4.2110    -7.3756 H       
  73 H73            3.6543    -3.3172    -6.5283 H       
  74 H74            5.1473    -1.5067    -7.0928 H       
  75 H75            6.6052    -2.5273    -6.8641 H       
@<TRIPOS>BOND
   1    1    2 1
   2    1    3 2
   3    1   23 1
   4    2   19 1
   5    2    5 1
   6    3    4 1
   7    3    7 1
   8    4    5 2
   9    5    6 1
  10    6   29 ar
  11    6   28 ar
  12    7    8 2
  13    7   10 am
  14    9   10 1
  15    9   11 1
  16    9   15 1
  17    9   38 1
  18   10   39 1
  19   11   12 1
  20   11   13 1
  21   11   14 1
  22   12   40 1
  23   12   41 1
  24   12   42 1
  25   13   43 1
  26   13   44 1
  27   13   45 1
  28   14   46 1
  29   14   47 1
  30   14   48 1
  31   15   16 am
  32   15   17 2
  33   16   18 1
  34   16   49 1
  35   18   50 1
  36   18   51 1
  37   18   52 1
  38   19   20 1
  39   19   53 1
  40   19   54 1
  41   20   21 1
  42   20   55 1
  43   20   56 1
  44   21   22 1
  45   21   57 1
  46   21   58 1
  47   22   23 1
  48   22   24 1
  49   23   59 1
  50   23   60 1
  51   24   61 1
  52   24   62 1
  53   24   63 1
  54   25   26 ar
  55   25   30 1
  56   25   29 ar
  57   26   27 ar
  58   26   64 1
  59   27   28 ar
  60   27   65 1
  61   28   66 1
  62   29   67 1
  63   30   31 2
  64   30   32 2
  65   30   33 am
  66   33   34 1
  67   33   35 1
  68   34   37 1
  69   34   68 1
  70   34   69 1
  71   35   36 1
  72   35   70 1
  73   35   71 1
  74   36   37 1
  75   36   72 1
  76   36   73 1
  77   37   74 1
  78   37   75 1

#	End of record

