#	Name: ASD07300364
#	Creating user name:	WinNT
#	Creation time:	15. 06. 2019 21:09

#	Modifying user name:	WinNT
#	Modification time:	15. 06. 2019 21:09

#	Program:	/corina/corina34_cracker 3.40 0067  02.08.2006

@<TRIPOS>MOLECULE
ASD07300364
  23   24    0    0    0
SMALL
NO_CHARGES


@<TRIPOS>ATOM
   1 C1            -0.0158     1.3107     0.0092 C.2     
   2 N2             0.0021    -0.0041     0.0020 N.2     
   3 C3             1.2719    -0.4278    -0.0127 C.2     
   4 C4             2.0775     0.6527    -0.0137 C.2     
   5 N5             1.2716     1.7600    -0.0006 N.pl3   
   6 C6             1.7713    -1.8519    -0.0279 C.3     
   7 C7             3.2424    -1.8452    -0.4604 C.3     
   8 C8             4.0164    -0.8212     0.3746 C.3     
   9 C9             3.5831     0.5948    -0.0255 C.3     
  10 S10           -1.4592     2.3211     0.0219 S.3     
  11 C11           -2.7389     1.0411     0.0220 C.3     
  12 H12            1.5610     2.6858     0.0009 H       
  13 H13            1.6848    -2.2812     0.9702 H       
  14 H14            1.1843    -2.4385    -0.7346 H       
  15 H15            3.6703    -2.8361    -0.3080 H       
  16 H16            3.3097    -1.5790    -1.5153 H       
  17 H17            3.8058    -0.9808     1.4321 H       
  18 H18            5.0850    -0.9387     0.1948 H       
  19 H19            3.9513     0.8227    -1.0258 H       
  20 H20            3.9837     1.3161     0.6868 H       
  21 H21           -2.6278     0.4163     0.9083 H       
  22 H22           -3.7225     1.5107     0.0295 H       
  23 H23           -2.6370     0.4254    -0.8717 H       
@<TRIPOS>BOND
   1    1    2 2
   2    1    5 1
   3    1   10 1
   4    2    3 1
   5    3    4 2
   6    3    6 1
   7    4    5 1
   8    4    9 1
   9    5   12 1
  10    6    7 1
  11    6   13 1
  12    6   14 1
  13    7    8 1
  14    7   15 1
  15    7   16 1
  16    8    9 1
  17    8   17 1
  18    8   18 1
  19    9   19 1
  20    9   20 1
  21   10   11 1
  22   11   21 1
  23   11   22 1
  24   11   23 1

#	End of record

