#	Name: ASD06170010
#	Creating user name:	WinNT
#	Creation time:	15. 06. 2019 21:05

#	Modifying user name:	WinNT
#	Modification time:	15. 06. 2019 21:05

#	Program:	/corina/corina34_cracker 3.40 0067  02.08.2006

@<TRIPOS>MOLECULE
ASD06170010
  71   75    0    0    0
SMALL
NO_CHARGES


@<TRIPOS>ATOM
   1 N1            -0.9879     1.8210    -0.5330 N.pl3   
   2 N2            -0.7834     0.6895     0.2624 N.am    
   3 C3             0.5402     0.4324     0.3114 C.2     
   4 C4             1.1975     1.4669    -0.5029 C.2     
   5 C5             0.1931     2.2818    -0.9874 C.2     
   6 C6             2.6376     1.6060    -0.7506 C.2     
   7 O7             3.0501     2.5140    -1.4480 O.2     
   8 N8             3.5030     0.7282    -0.2058 N.am    
   9 C9            -1.7834    -0.0514     0.9007 C.ar    
  10 C10           -1.7921    -1.4368     0.8037 C.ar    
  11 C11           -2.7806    -2.1655     1.4356 C.ar    
  12 C12           -3.7612    -1.5171     2.1638 C.ar    
  13 C13           -3.7553    -0.1378     2.2623 C.ar    
  14 C14           -2.7663     0.5964     1.6376 C.ar    
  15 O15            1.0836    -0.4762     0.9115 O.2     
  16 C16           -2.2937     2.4136    -0.8328 C.3     
  17 C17            4.8822     0.9435    -0.3176 C.ar    
  18 C18            5.3849     2.2382    -0.3217 C.ar    
  19 C19            6.7464     2.4496    -0.4316 C.ar    
  20 C20            7.6110     1.3667    -0.5379 C.ar    
  21 C21            7.1079     0.0747    -0.5336 C.ar    
  22 C22            5.7477    -0.1374    -0.4185 C.ar    
  23 O23            8.9506     1.5743    -0.6465 O.3     
  24 N24           11.0795     2.1976     2.8303 N.ar    
  25 C25            9.8028     1.8981     2.8828 C.ar    
  26 C26            9.0536     1.6815     1.7335 C.ar    
  27 C27            9.6569     1.7808     0.4919 C.ar    
  28 C28           11.0323     2.1039     0.4472 C.ar    
  29 C29           11.7123     2.2224    -0.7736 C.ar    
  30 C30           13.0367     2.5352    -0.7837 C.ar    
  31 C31           13.7320     2.7407     0.4114 C.ar    
  32 C32           13.0929     2.6311     1.6257 C.ar    
  33 C33           11.7267     2.3100     1.6642 C.ar    
  34 O34           15.0537     3.0519     0.3742 O.3     
  35 C35           15.6608     3.1509    -0.9157 C.3     
  36 F36            7.2366     3.7086    -0.4362 F       
  37 C37            0.3862     3.4838    -1.8756 C.3     
  38 N38            0.0152     4.7004    -1.1406 N.3     
  39 C39            1.0364     5.0443    -0.1422 C.3     
  40 C40           -0.2191     5.8208    -2.0614 C.3     
  41 C41           -0.8394     6.9903    -1.2941 C.3     
  42 H42            3.1706    -0.0528     0.2638 H       
  43 H43           -1.0270    -1.9437     0.2345 H       
  44 H44           -2.7880    -3.2429     1.3605 H       
  45 H45           -4.5335    -2.0892     2.6564 H       
  46 H46           -4.5226     0.3656     2.8319 H       
  47 H47           -2.7599     1.6734     1.7183 H       
  48 H48           -3.0821     1.7811    -0.4248 H       
  49 H49           -2.3544     3.4050    -0.3840 H       
  50 H50           -2.4161     2.4956    -1.9128 H       
  51 H51            4.7124     3.0792    -0.2395 H       
  52 H52            7.7802    -0.7665    -0.6162 H       
  53 H53            5.3570    -1.1442    -0.4112 H       
  54 H54            9.3214     1.8179     3.8462 H       
  55 H55            8.0046     1.4358     1.8084 H       
  56 H56           11.1861     2.0656    -1.7037 H       
  57 H57           13.5567     2.6252    -1.7259 H       
  58 H58           13.6393     2.7912     2.5434 H       
  59 H59           15.5698     2.1965    -1.4343 H       
  60 H60           15.1606     3.9277    -1.4940 H       
  61 H61           16.7149     3.4040    -0.8027 H       
  62 H62            1.4311     3.5471    -2.1792 H       
  63 H63           -0.2439     3.3872    -2.7598 H       
  64 H64            2.0011     5.1636    -0.6354 H       
  65 H65            0.7628     5.9770     0.3510 H       
  66 H66            1.1032     4.2475     0.5986 H       
  67 H67            0.7281     6.1353    -2.4995 H       
  68 H68           -0.8984     5.5046    -2.8530 H       
  69 H69           -1.0133     7.8216    -1.9773 H       
  70 H70           -1.7866     6.6758    -0.8560 H       
  71 H71           -0.1602     7.3065    -0.5025 H       
@<TRIPOS>BOND
   1    1    2 1
   2    1    5 1
   3    1   16 1
   4    2    3 am
   5    2    9 1
   6    3    4 1
   7    3   15 2
   8    4    5 2
   9    4    6 1
  10    5   37 1
  11    6    7 2
  12    6    8 am
  13    8   17 1
  14    8   42 1
  15    9   10 ar
  16    9   14 ar
  17   10   11 ar
  18   10   43 1
  19   11   12 ar
  20   11   44 1
  21   12   13 ar
  22   12   45 1
  23   13   14 ar
  24   13   46 1
  25   14   47 1
  26   16   48 1
  27   16   49 1
  28   16   50 1
  29   17   18 ar
  30   17   22 ar
  31   18   19 ar
  32   18   51 1
  33   19   20 ar
  34   19   36 1
  35   20   21 ar
  36   20   23 1
  37   21   22 ar
  38   21   52 1
  39   22   53 1
  40   23   27 1
  41   24   25 ar
  42   24   33 ar
  43   25   26 ar
  44   25   54 1
  45   26   27 ar
  46   26   55 1
  47   27   28 ar
  48   28   29 ar
  49   28   33 ar
  50   29   30 ar
  51   29   56 1
  52   30   31 ar
  53   30   57 1
  54   31   32 ar
  55   31   34 1
  56   32   33 ar
  57   32   58 1
  58   34   35 1
  59   35   59 1
  60   35   60 1
  61   35   61 1
  62   37   38 1
  63   37   62 1
  64   37   63 1
  65   38   39 1
  66   38   40 1
  67   39   64 1
  68   39   65 1
  69   39   66 1
  70   40   41 1
  71   40   67 1
  72   40   68 1
  73   41   69 1
  74   41   70 1
  75   41   71 1

#	End of record

