#	Name: ASD01140518
#	Creating user name:	WinNT
#	Creation time:	15. 06. 2019 19:01

#	Modifying user name:	WinNT
#	Modification time:	15. 06. 2019 19:01

#	Program:	/corina/corina34_cracker 3.40 0067  02.08.2006

@<TRIPOS>MOLECULE
ASD01140518
  38   40    0    0    0
SMALL
NO_CHARGES


@<TRIPOS>ATOM
   1 C1            -0.0171     1.4096     0.0098 C.ar    
   2 C2             0.0021    -0.0041     0.0020 C.ar    
   3 C3             1.2921    -0.6950    -0.0013 C.ar    
   4 C4             2.4355     0.0378    -0.0258 C.ar    
   5 C5             2.3997     1.4385    -0.0419 C.ar    
   6 C6             1.1782     2.1285     0.0022 C.ar    
   7 N7             3.6171     2.1058    -0.1302 N.pl3   
   8 C8             4.7900     1.7272     0.4534 C.2     
   9 N9             5.7236     2.5651     0.1047 N.2     
  10 C10            5.1855     3.5207    -0.7003 C.2     
  11 C11            3.8598     3.2421    -0.8306 C.2     
  12 C12            1.0813     3.5906     0.0659 C.2     
  13 C13            2.8299     4.0493    -1.5782 C.3     
  14 N14            1.8108     4.4737    -0.6118 N.am    
  15 C15            5.9043     4.6476    -1.3165 C.2     
  16 O16            5.3063     5.4383    -2.0196 O.2     
  17 O17            7.2258     4.8027    -1.1010 O.3     
  18 C18            7.8694     5.9364    -1.7404 C.3     
  19 C19            9.3569     5.9470    -1.3826 C.3     
  20 O20            0.2429     4.0454     0.8195 O.2     
  21 C21            1.5913     5.9046    -0.3868 C.3     
  22 N22           -1.1299    -0.6923    -0.0018 N.2     
  23 N23           -1.1043    -1.8160    -0.0079 N.1     
  24 N24           -1.0788    -2.9397    -0.0141 N.pl3   
  25 H25           -0.9607     1.9349     0.0171 H       
  26 H26            1.3345    -1.7741     0.0158 H       
  27 H27            3.3895    -0.4683    -0.0326 H       
  28 H28            4.9227     0.8723     1.0999 H       
  29 H29            3.3004     4.9238    -2.0276 H       
  30 H30            2.3709     3.4359    -2.3537 H       
  31 H31            7.7564     5.8561    -2.8216 H       
  32 H32            7.4058     6.8601    -1.3943 H       
  33 H33            9.8400     6.7981    -1.8626 H       
  34 H34            9.4699     6.0273    -0.3014 H       
  35 H35            9.8205     5.0233    -1.7287 H       
  36 H36            0.8056     6.0392     0.3566 H       
  37 H37            2.5134     6.3616    -0.0276 H       
  38 H38            1.2917     6.3777    -1.3219 H       
@<TRIPOS>BOND
   1    1    2 ar
   2    1    6 ar
   3    1   25 1
   4    2    3 ar
   5    2   22 1
   6    3    4 ar
   7    3   26 1
   8    4    5 ar
   9    4   27 1
  10    5    6 ar
  11    5    7 1
  12    6   12 1
  13    7    8 1
  14    7   11 1
  15    8    9 2
  16    8   28 1
  17    9   10 1
  18   10   11 2
  19   10   15 1
  20   11   13 1
  21   12   14 am
  22   12   20 2
  23   13   14 1
  24   13   29 1
  25   13   30 1
  26   14   21 1
  27   15   16 2
  28   15   17 1
  29   17   18 1
  30   18   19 1
  31   18   31 1
  32   18   32 1
  33   19   33 1
  34   19   34 1
  35   19   35 1
  36   21   36 1
  37   21   37 1
  38   21   38 1
  39   22   23 2
  40   23   24 2

#	End of record

