#	Name: ASD01884152
#	Creating user name:	WinNT
#	Creation time:	15. 06. 2019 19:47

#	Modifying user name:	WinNT
#	Modification time:	15. 06. 2019 19:47

#	Program:	/corina/corina34_cracker 3.40 0067  02.08.2006

@<TRIPOS>MOLECULE
ASD01884152
  32   33    0    0    0
SMALL
NO_CHARGES


@<TRIPOS>ATOM
   1 C1            -0.0840     1.4691     0.1887 C.ar    
   2 C2            -0.1179     0.1867     0.7216 C.ar    
   3 C3            -1.2637    -0.5838     0.5236 C.ar    
   4 C4            -2.3174    -0.0531    -0.1885 C.ar    
   5 N5            -2.2546     1.1697    -0.6831 N.ar    
   6 C6            -1.1879     1.9369    -0.5127 C.ar    
   7 N7            -1.1683     3.2181    -1.0520 N.pl3   
   8 O8             0.9387    -0.3050     1.4178 O.3     
   9 C9             0.8166    -1.6335     1.9299 C.3     
  10 N10           -2.2829     3.7193    -1.6624 N.3     
  11 C11            1.1302     2.3422     0.3742 C.3     
  12 F12            2.2416     1.5413     0.6577 F       
  13 F13            1.3656     3.0686    -0.7980 F       
  14 F14            0.9104     3.2273     1.4351 F       
  15 C15            2.0767    -2.0050     2.6683 C.ar    
  16 C16            2.1884    -1.7418     4.0207 C.ar    
  17 C17            3.3443    -2.0825     4.6980 C.ar    
  18 C18            4.3883    -2.6868     4.0230 C.ar    
  19 C19            4.2762    -2.9509     2.6707 C.ar    
  20 C20            3.1187    -2.6141     1.9943 C.ar    
  21 H21           -1.3242    -1.5852     0.9236 H       
  22 H22           -3.2068    -0.6456    -0.3445 H       
  23 H23           -0.3632     3.7561    -0.9949 H       
  24 H24           -0.0322    -1.6835     2.6118 H       
  25 H25            0.6610    -2.3281     1.1044 H       
  26 H26           -3.0774     3.6948    -1.0409 H       
  27 H27           -2.1188     4.6548    -2.0029 H       
  28 H28            1.3727    -1.2696     4.5481 H       
  29 H29            3.4318    -1.8762     5.7545 H       
  30 H30            5.2916    -2.9524     4.5520 H       
  31 H31            5.0920    -3.4227     2.1432 H       
  32 H32            3.0297    -2.8238     0.9386 H       
@<TRIPOS>BOND
   1    1    2 ar
   2    1   11 1
   3    1    6 ar
   4    2    3 ar
   5    2    8 1
   6    3    4 ar
   7    3   21 1
   8    4    5 ar
   9    4   22 1
  10    5    6 ar
  11    6    7 1
  12    7   10 1
  13    7   23 1
  14    8    9 1
  15    9   15 1
  16    9   24 1
  17    9   25 1
  18   10   26 1
  19   10   27 1
  20   11   12 1
  21   11   13 1
  22   11   14 1
  23   15   16 ar
  24   15   20 ar
  25   16   17 ar
  26   16   28 1
  27   17   18 ar
  28   17   29 1
  29   18   19 ar
  30   18   30 1
  31   19   20 ar
  32   19   31 1
  33   20   32 1

#	End of record

