#	Name: ASD00990046
#	Creating user name:	WinNT
#	Creation time:	15. 06. 2019 18:54

#	Modifying user name:	WinNT
#	Modification time:	15. 06. 2019 18:54

#	Program:	/corina/corina34_cracker 3.40 0067  02.08.2006

@<TRIPOS>MOLECULE
ASD00990046
  21   21    0    0    0
SMALL
NO_CHARGES


@<TRIPOS>ATOM
   1 C1             0.3730     0.7345     1.1090 C.ar    
   2 C2             0.0027    -0.0052     0.0014 C.ar    
   3 C3             0.8174    -0.0404    -1.1152 C.ar    
   4 C4             2.0088     0.6670    -1.1275 C.ar    
   5 C5             2.3837     1.4132    -0.0134 C.ar    
   6 C6             1.5615     1.4441     1.1052 C.ar    
   7 F7             1.9207     2.1670     2.1885 F       
   8 O8             2.8105     0.6323    -2.2254 O.3     
   9 N9             3.5892     2.1309    -0.0204 N.am    
  10 C10            3.6037     3.4201    -0.4133 C.2     
  11 O11            2.5917     3.9345    -0.8471 O.2     
  12 O12            4.7394     4.1382    -0.3252 O.3     
  13 C13            4.6814     5.5203    -0.7663 C.3     
  14 H14           -0.2685     0.7624     1.9774 H       
  15 H15           -0.9253    -0.5575     0.0084 H       
  16 H16            0.5251    -0.6200    -1.9783 H       
  17 H17            2.6214     1.3254    -2.8726 H       
  18 H18            4.4123     1.6993     0.2574 H       
  19 H19            5.6606     5.9827    -0.6421 H       
  20 H20            4.3941     5.5545    -1.8172 H       
  21 H21            3.9460     6.0612    -0.1708 H       
@<TRIPOS>BOND
   1    1    2 ar
   2    1    6 ar
   3    1   14 1
   4    2    3 ar
   5    2   15 1
   6    3    4 ar
   7    3   16 1
   8    4    5 ar
   9    4    8 1
  10    5    6 ar
  11    5    9 1
  12    6    7 1
  13    8   17 1
  14    9   10 am
  15    9   18 1
  16   10   11 2
  17   10   12 1
  18   12   13 1
  19   13   19 1
  20   13   20 1
  21   13   21 1

#	End of record

