#	Name: ASD04590768
#	Creating user name:	WinNT
#	Creation time:	15. 06. 2019 20:51

#	Modifying user name:	WinNT
#	Modification time:	15. 06. 2019 20:51

#	Program:	/corina/corina34_cracker 3.40 0067  02.08.2006

@<TRIPOS>MOLECULE
ASD04590768
  66   72    0    0    0
SMALL
NO_CHARGES


@<TRIPOS>ATOM
   1 N1            -2.3782    -2.7058     0.0195 N.ar    
   2 C2            -1.2116    -2.0737     0.0036 C.ar    
   3 N3            -0.0572    -2.7201    -0.0183 N.ar    
   4 C4            -0.0258    -4.0494    -0.0249 C.ar    
   5 C5            -1.2485    -4.7504    -0.0081 C.ar    
   6 C6            -2.4369    -4.0273     0.0144 C.ar    
   7 N7             0.9981    -4.9637    -0.0460 N.pl3   
   8 C8             0.4951    -6.2533    -0.0436 C.ar    
   9 C9            -0.9091    -6.1790    -0.0202 C.ar    
  10 C10            1.0916    -7.5074    -0.0596 C.ar    
  11 N11            0.3554    -8.5999    -0.0533 N.ar    
  12 C12           -0.9653    -8.5647    -0.0314 C.ar    
  13 C13           -1.6434    -7.3643    -0.0131 C.ar    
  14 C14            2.4227    -4.6225    -0.0683 C.3     
  15 N15           -1.2019    -0.6887     0.0098 N.pl3   
  16 C16           -2.4016     0.0177    -0.0802 C.ar    
  17 N17           -3.5391    -0.6295    -0.2720 N.ar    
  18 N18           -4.6655    -0.0208    -0.3610 N.ar    
  19 C19           -4.7646     1.2952    -0.2669 C.ar    
  20 C20           -3.6184     2.0654    -0.0641 C.ar    
  21 C21           -2.4049     1.4084     0.0375 C.ar    
  22 N22           -6.0101     1.9108    -0.3704 N.3     
  23 C23            2.7460    -3.7909    -1.3219 C.3     
  24 C24            3.2825    -2.4331    -0.8238 C.3     
  25 C25            3.8152    -2.7341     0.5992 C.3     
  26 C26            2.7741    -3.7410     1.1480 C.3     
  27 C27           -7.0717     0.9184    -0.5811 C.3     
  28 C28           -8.4357     1.6122    -0.5364 C.3     
  29 C29           -8.4869     2.6939    -1.6150 C.3     
  30 C30           -7.3391     3.6832    -1.4157 C.3     
  31 C31           -6.0095     2.9245    -1.4328 C.3     
  32 N32           -8.3977     2.0799    -2.9497 N.3     
  33 C33           -9.6392     2.3900    -3.6917 C.3     
  34 C34          -10.1845     3.6800    -3.0292 C.3     
  35 C35           -9.8327     3.4397    -1.5368 C.3     
  36 H36           -3.3897    -4.5355     0.0273 H       
  37 H37            2.1685    -7.5878    -0.0777 H       
  38 H38           -1.5221    -9.4901    -0.0272 H       
  39 H39           -2.7231    -7.3426     0.0047 H       
  40 H40            3.0242    -5.5315    -0.0578 H       
  41 H41           -0.3610    -0.2099     0.0768 H       
  42 H42           -3.6773     3.1409     0.0151 H       
  43 H43           -1.4872     1.9557     0.1945 H       
  44 H44            3.5050    -4.2958    -1.9194 H       
  45 H45            1.8429    -3.6412    -1.9137 H       
  46 H46            4.0896    -2.0826    -1.4670 H       
  47 H47            2.4793    -1.6974    -0.7827 H       
  48 H48            4.8049    -3.1884     0.5530 H       
  49 H49            3.8327    -1.8280     1.2048 H       
  50 H50            1.8888    -3.2165     1.5075 H       
  51 H51            3.2102    -4.3451     1.9436 H       
  52 H52           -6.9374     0.4435    -1.5530 H       
  53 H53           -7.0229     0.1622     0.2024 H       
  54 H54           -9.2226     0.8800    -0.7176 H       
  55 H55           -8.5803     2.0678     0.4432 H       
  56 H56           -7.3488     4.4187    -2.2201 H       
  57 H57           -7.4570     4.1893    -0.4575 H       
  58 H58           -5.1900     3.6238    -1.2671 H       
  59 H59           -5.8815     2.4375    -2.3995 H       
  60 H60           -7.5860     2.4134    -3.4476 H       
  61 H61           -9.4179     2.5683    -4.7440 H       
  62 H62          -10.3573     1.5767    -3.5866 H       
  63 H63           -9.6731     4.5624    -3.4136 H       
  64 H64          -11.2624     3.7642    -3.1675 H       
  65 H65          -10.5900     2.8195    -1.0571 H       
  66 H66           -9.7185     4.3871    -1.0101 H       
@<TRIPOS>BOND
   1    1    2 ar
   2    1    6 ar
   3    2    3 ar
   4    2   15 1
   5    3    4 ar
   6    4    5 ar
   7    4    7 1
   8    5    6 ar
   9    5    9 1
  10    6   36 1
  11    7    8 1
  12    7   14 1
  13    8    9 ar
  14    8   10 ar
  15    9   13 ar
  16   10   11 ar
  17   10   37 1
  18   11   12 ar
  19   12   13 ar
  20   12   38 1
  21   13   39 1
  22   14   23 1
  23   14   26 1
  24   14   40 1
  25   15   16 1
  26   15   41 1
  27   16   17 ar
  28   16   21 ar
  29   17   18 ar
  30   18   19 ar
  31   19   20 ar
  32   19   22 1
  33   20   21 ar
  34   20   42 1
  35   21   43 1
  36   22   27 1
  37   22   31 1
  38   23   24 1
  39   23   44 1
  40   23   45 1
  41   24   25 1
  42   24   46 1
  43   24   47 1
  44   25   26 1
  45   25   48 1
  46   25   49 1
  47   26   50 1
  48   26   51 1
  49   27   28 1
  50   27   52 1
  51   27   53 1
  52   28   29 1
  53   28   54 1
  54   28   55 1
  55   29   30 1
  56   29   32 1
  57   29   35 1
  58   30   31 1
  59   30   56 1
  60   30   57 1
  61   31   58 1
  62   31   59 1
  63   32   33 1
  64   32   60 1
  65   33   34 1
  66   33   61 1
  67   33   62 1
  68   34   35 1
  69   34   63 1
  70   34   64 1
  71   35   65 1
  72   35   66 1

#	End of record

