#	Name: ASD03331765
#	Creating user name:	WinNT
#	Creation time:	15. 06. 2019 20:39

#	Modifying user name:	WinNT
#	Modification time:	15. 06. 2019 20:39

#	Program:	/corina/corina34_cracker 3.40 0067  02.08.2006

@<TRIPOS>MOLECULE
ASD03331765
  50   53    0    0    0
SMALL
NO_CHARGES


@<TRIPOS>ATOM
   1 C1            -0.0187     1.5258     0.0104 C.3     
   2 C2             0.0021    -0.0041     0.0020 C.3     
   3 O3             0.6709    -0.4649    -1.1737 O.3     
   4 C4             0.7766    -1.8076    -1.3358 C.ar    
   5 C5             1.4221    -2.3139    -2.4576 C.ar    
   6 C6             1.5264    -3.6827    -2.6160 C.ar    
   7 C7             0.9734    -4.5098    -1.6328 C.ar    
   8 C8             0.3419    -3.9281    -0.5369 C.ar    
   9 N9             0.2684    -2.6174    -0.4211 N.ar    
  10 C10            1.0583    -5.9859    -1.7564 C.ar    
  11 C11            1.6968    -6.5603    -2.8537 C.ar    
  12 C12            1.7732    -7.9339    -2.9633 C.ar    
  13 C13            1.2171    -8.7402    -1.9866 C.ar    
  14 C14            1.3038   -10.2395    -2.1118 C.3     
  15 N15            2.5281   -10.7139    -1.4619 N.am    
  16 S16            2.7109   -12.3225    -1.1139 S.o2    
  17 O17            3.9978   -12.4626    -0.5280 O.2     
  18 O18            1.5137   -12.7317    -0.4670 O.2     
  19 C19            2.7667   -13.1852    -2.6493 C.2     
  20 C20            1.6980   -13.6758    -3.2967 C.2     
  21 C21            2.1930   -14.3106    -4.5207 C.ar    
  22 C22            1.5817   -14.9819    -5.5810 C.ar    
  23 C23            2.3444   -15.4721    -6.6035 C.ar    
  24 C24            3.7226   -15.3082    -6.5962 C.ar    
  25 C25            4.3465   -14.6489    -5.5596 C.ar    
  26 C26            3.5897   -14.1414    -4.5087 C.ar    
  27 N27            3.9051   -13.4492    -3.3610 N.pl3   
  28 H28            4.8011   -13.1893    -3.0955 H       
  29 C29            0.5822    -8.1755    -0.8952 C.ar    
  30 C30            0.5049    -6.8030    -0.7725 C.ar    
  31 H31            1.0039     1.9031     0.0027 H       
  32 H32           -0.5459     1.8868    -0.8726 H       
  33 H33           -0.5289     1.8773     0.9072 H       
  34 H34            0.5293    -0.3651     0.8851 H       
  35 H35           -1.0205    -0.3814     0.0098 H       
  36 H36            1.8371    -1.6452    -3.1972 H       
  37 H37            2.0224    -4.1035    -3.4781 H       
  38 H38           -0.0885    -4.5573     0.2281 H       
  39 H39            2.1307    -5.9316    -3.6173 H       
  40 H40            2.2678    -8.3801    -3.8134 H       
  41 H41            0.4377   -10.6949    -1.6316 H       
  42 H42            1.3218   -10.5156    -3.1661 H       
  43 H43            3.2316   -10.0857    -1.2354 H       
  44 H44            0.6686   -13.6144    -2.9760 H       
  45 H45            0.5098   -15.1137    -5.5930 H       
  46 H46            1.8711   -15.9914    -7.4236 H       
  47 H47            4.3120   -15.7019    -7.4111 H       
  48 H48            5.4196   -14.5268    -5.5629 H       
  49 H49            0.1494    -8.8097    -0.1356 H       
  50 H50            0.0125    -6.3630     0.0821 H       
@<TRIPOS>BOND
   1    1    2 1
   2    1   31 1
   3    1   32 1
   4    1   33 1
   5    2    3 1
   6    2   34 1
   7    2   35 1
   8    3    4 1
   9    4    9 ar
  10    4    5 ar
  11    5    6 ar
  12    5   36 1
  13    6    7 ar
  14    6   37 1
  15    7    8 ar
  16    7   10 1
  17    8    9 ar
  18    8   38 1
  19   10   30 ar
  20   10   11 ar
  21   11   12 ar
  22   11   39 1
  23   12   13 ar
  24   12   40 1
  25   13   14 1
  26   13   29 ar
  27   14   15 1
  28   14   41 1
  29   14   42 1
  30   15   16 am
  31   15   43 1
  32   16   17 2
  33   16   18 2
  34   16   19 1
  35   19   27 1
  36   19   20 2
  37   20   21 1
  38   20   44 1
  39   21   26 ar
  40   21   22 ar
  41   22   23 ar
  42   22   45 1
  43   23   24 ar
  44   23   46 1
  45   24   25 ar
  46   24   47 1
  47   25   26 ar
  48   25   48 1
  49   26   27 1
  50   27   28 1
  51   29   30 ar
  52   29   49 1
  53   30   50 1

#	End of record

