#	Name: ASD05720245
#	Creating user name:	WinNT
#	Creation time:	15. 06. 2019 21:02

#	Modifying user name:	WinNT
#	Modification time:	15. 06. 2019 21:02

#	Program:	/corina/corina34_cracker 3.40 0067  02.08.2006

@<TRIPOS>MOLECULE
ASD05720245
  18   19    0    0    0
SMALL
NO_CHARGES


@<TRIPOS>ATOM
   1 N1            -0.0170     1.4001     0.0097 N.pl3   
   2 N2             0.0021    -0.0041     0.0020 N.2     
   3 C3             1.2579    -0.3691    -0.0119 C.2     
   4 N4             2.0287     0.7148    -0.0135 N.2     
   5 C5             1.2763     1.7964    -0.0005 C.2     
   6 C6             1.7598     3.1949     0.0024 C.ar    
   7 C7             3.1290     3.4621    -0.0092 C.ar    
   8 C8             3.5742     4.7699    -0.0064 C.ar    
   9 C9             2.6623     5.8146     0.0084 C.ar    
  10 C10            1.3035     5.5531     0.0204 C.ar    
  11 C11            0.8481     4.2506     0.0110 C.ar    
  12 F12            4.8996     5.0315    -0.0177 F       
  13 Br13           3.2778     7.6026     0.0128 Br      
  14 H14           -0.8008     1.9716     0.0167 H       
  15 H15            1.6129    -1.3891    -0.0203 H       
  16 H16            3.8392     2.6486    -0.0201 H       
  17 H17            0.5978     6.3705     0.0323 H       
  18 H18           -0.2128     4.0487     0.0155 H       
@<TRIPOS>BOND
   1    1    2 1
   2    1    5 1
   3    1   14 1
   4    2    3 2
   5    3    4 1
   6    3   15 1
   7    4    5 2
   8    5    6 1
   9    6    7 ar
  10    6   11 ar
  11    7    8 ar
  12    7   16 1
  13    8    9 ar
  14    8   12 1
  15    9   10 ar
  16    9   13 1
  17   10   11 ar
  18   10   17 1
  19   11   18 1

#	End of record

