#	Name: ASD01810767
#	Creating user name:	WinNT
#	Creation time:	15. 06. 2019 19:25

#	Modifying user name:	WinNT
#	Modification time:	15. 06. 2019 19:25

#	Program:	/corina/corina34_cracker 3.40 0067  02.08.2006

@<TRIPOS>MOLECULE
ASD01810767
  62   65    0    0    0
SMALL
NO_CHARGES


@<TRIPOS>ATOM
   1 N1             0.5826     1.1439    -0.2961 N.2     
   2 N2             0.8944    -0.1022    -0.3460 N.2     
   3 C3             2.2042    -0.2361    -0.3198 C.2     
   4 N4             2.7392     1.0262    -0.2482 N.pl3   
   5 C5             1.6775     1.8792    -0.2350 C.2     
   6 C6             2.9547    -1.5031    -0.3593 C.2     
   7 O7             4.1653    -1.4894    -0.4753 O.2     
   8 N8             2.2999    -2.6774    -0.2670 N.am    
   9 C9             3.0240    -3.9368    -0.4564 C.3     
  10 C10            0.8639    -2.6945     0.0227 C.3     
  11 C11            1.7396     3.3547    -0.1652 C.ar    
  12 C12            0.5615     4.1055    -0.1592 C.ar    
  13 C13            0.6178     5.4833    -0.0941 C.ar    
  14 C14            1.8372     6.1288    -0.0345 C.ar    
  15 C15            3.0226     5.3905    -0.0398 C.ar    
  16 C16            2.9729     3.9992    -0.0996 C.ar    
  17 C17            1.8888     7.6333     0.0359 C.3     
  18 C18           -0.7737     3.4098    -0.2244 C.3     
  19 C19            4.3274     6.0833     0.0230 C.2     
  20 O20            4.5990     6.7820     0.9799 O.2     
  21 N21            5.2154     5.9402    -0.9806 N.am    
  22 C22            6.4734     6.6992    -0.9811 C.3     
  23 C23            6.5965     7.4489    -2.3113 C.3     
  24 C24            6.4619     6.4548    -3.4670 C.3     
  25 C25            5.0843     5.7903    -3.4127 C.3     
  26 C26            4.9466     5.0176    -2.0921 C.3     
  27 C27            6.6164     7.1837    -4.7769 C.ar    
  28 C28            7.6343     6.8311    -5.6452 C.ar    
  29 C29            7.7816     7.4942    -6.8459 C.ar    
  30 C30            6.9001     8.5229    -7.1843 C.ar    
  31 C31            5.8748     8.8731    -6.3035 C.ar    
  32 C32            5.7362     8.1985    -5.1082 C.ar    
  33 C33            7.0472     9.2158    -8.4288 C.1     
  34 N34            7.1640     9.7655    -9.4160 N.1     
  35 H35            3.6794     1.2619    -0.2135 H       
  36 H36            3.4071    -4.2835     0.5033 H       
  37 H37            2.3485    -4.6857    -0.8699 H       
  38 H38            3.8551    -3.7782    -1.1435 H       
  39 H39            0.5222    -1.6797     0.2265 H       
  40 H40            0.3247    -3.0938    -0.8364 H       
  41 H41            0.6764    -3.3228     0.8934 H       
  42 H42           -0.2960     6.0591    -0.0900 H       
  43 H43            3.8866     3.4234    -0.0998 H       
  44 H44            1.9686     7.9458     1.0771 H       
  45 H45            2.7551     7.9935    -0.5190 H       
  46 H46            0.9801     8.0488    -0.3995 H       
  47 H47           -1.1208     3.1942     0.7861 H       
  48 H48           -1.4951     4.0544    -0.7266 H       
  49 H49           -0.6710     2.4776    -0.7799 H       
  50 H50            6.4694     7.4137    -0.1579 H       
  51 H51            7.3136     6.0140    -0.8687 H       
  52 H52            5.8072     8.1974    -2.3814 H       
  53 H53            7.5688     7.9388    -2.3642 H       
  54 H54            7.2363     5.6924    -3.3823 H       
  55 H55            4.3092     6.5544    -3.4724 H       
  56 H56            4.9803     5.0996    -4.2495 H       
  57 H57            5.6649     4.1980    -2.0685 H       
  58 H58            3.9349     4.6222    -2.0022 H       
  59 H59            8.3154     6.0353    -5.3822 H       
  60 H60            8.5770     7.2185    -7.5224 H       
  61 H61            5.1896     9.6679    -6.5591 H       
  62 H62            4.9412     8.4656    -4.4278 H       
@<TRIPOS>BOND
   1    1    2 1
   2    1    5 2
   3    2    3 2
   4    3    4 1
   5    3    6 1
   6    4    5 1
   7    4   35 1
   8    5   11 1
   9    6    7 2
  10    6    8 am
  11    8    9 1
  12    8   10 1
  13    9   36 1
  14    9   37 1
  15    9   38 1
  16   10   39 1
  17   10   40 1
  18   10   41 1
  19   11   12 ar
  20   11   16 ar
  21   12   13 ar
  22   12   18 1
  23   13   14 ar
  24   13   42 1
  25   14   15 ar
  26   14   17 1
  27   15   16 ar
  28   15   19 1
  29   16   43 1
  30   17   44 1
  31   17   45 1
  32   17   46 1
  33   18   47 1
  34   18   48 1
  35   18   49 1
  36   19   20 2
  37   19   21 am
  38   21   22 1
  39   21   26 1
  40   22   23 1
  41   22   50 1
  42   22   51 1
  43   23   24 1
  44   23   52 1
  45   23   53 1
  46   24   25 1
  47   24   27 1
  48   24   54 1
  49   25   26 1
  50   25   55 1
  51   25   56 1
  52   26   57 1
  53   26   58 1
  54   27   28 ar
  55   27   32 ar
  56   28   29 ar
  57   28   59 1
  58   29   30 ar
  59   29   60 1
  60   30   31 ar
  61   30   33 1
  62   31   32 ar
  63   31   61 1
  64   32   62 1
  65   33   34 3

#	End of record

