#	Name: ASD08070181
#	Creating user name:	WinNT
#	Creation time:	15. 06. 2019 21:14

#	Modifying user name:	WinNT
#	Modification time:	15. 06. 2019 21:14

#	Program:	/corina/corina34_cracker 3.40 0067  02.08.2006

@<TRIPOS>MOLECULE
ASD08070181
  35   36    0    0    0
SMALL
NO_CHARGES


@<TRIPOS>ATOM
   1 C1            -0.0167     1.3791     0.0096 C.ar    
   2 C2             0.0021    -0.0041     0.0020 C.ar    
   3 C3             1.2052    -0.6817    -0.0126 C.ar    
   4 C4             2.4058     0.0335    -0.0202 C.ar    
   5 C5             2.3786     1.4306    -0.0129 C.ar    
   6 C6             1.1675     2.0940     0.0022 C.ar    
   7 C7             3.6968    -0.6837    -0.0354 C.2     
   8 N8             4.2965    -1.0164     1.1248 N.am    
   9 Cl9            3.8635     2.3299    -0.0217 Cl      
  10 O10            4.2185    -0.9739    -1.0944 O.2     
  11 C11            6.7196    -0.7186     0.9783 C.3     
  12 C12            5.5771    -1.7278     1.1097 C.3     
  13 C13            5.7056    -1.5491     3.5985 C.3     
  14 C14            5.7389    -2.5145     2.4120 C.3     
  15 C15            6.6864     0.2467     2.1649 C.3     
  16 C16            6.8481    -0.5400     3.4671 C.3     
  17 C17            4.5964    -3.5237     2.5434 C.3     
  18 Cl18           1.2263    -2.4176    -0.0210 Cl      
  19 H19           -0.9608     1.9035     0.0169 H       
  20 H20           -0.9266    -0.5554     0.0079 H       
  21 H21            1.1449     3.1738     0.0078 H       
  22 H22            3.8803    -0.7849     1.9698 H       
  23 H23            7.6724    -1.2479     0.9671 H       
  24 H24            6.6044    -0.1581     0.0506 H       
  25 H25            5.6008    -2.4155     0.2644 H       
  26 H26            4.7528    -1.0199     3.6097 H       
  27 H27            5.8209    -2.1096     4.5262 H       
  28 H28            6.6917    -3.0438     2.4008 H       
  29 H29            7.5003     0.9657     2.0713 H       
  30 H30            5.7336     0.7760     2.1761 H       
  31 H31            6.8244     0.1478     4.3124 H       
  32 H32            7.8009    -1.0693     3.4559 H       
  33 H33            3.6436    -2.9944     2.5546 H       
  34 H34            4.6201    -4.2114     1.6981 H       
  35 H35            4.7116    -4.0841     3.4711 H       
@<TRIPOS>BOND
   1    1    2 ar
   2    1    6 ar
   3    1   19 1
   4    2    3 ar
   5    2   20 1
   6    3    4 ar
   7    3   18 1
   8    4    5 ar
   9    4    7 1
  10    5    6 ar
  11    5    9 1
  12    6   21 1
  13    7    8 am
  14    7   10 2
  15    8   12 1
  16    8   22 1
  17   11   12 1
  18   11   15 1
  19   11   23 1
  20   11   24 1
  21   12   14 1
  22   12   25 1
  23   13   14 1
  24   13   16 1
  25   13   26 1
  26   13   27 1
  27   14   17 1
  28   14   28 1
  29   15   16 1
  30   15   29 1
  31   15   30 1
  32   16   31 1
  33   16   32 1
  34   17   33 1
  35   17   34 1
  36   17   35 1

#	End of record

