#	Name: ASD03430826
#	Creating user name:	WinNT
#	Creation time:	15. 06. 2019 20:41

#	Modifying user name:	WinNT
#	Modification time:	15. 06. 2019 20:41

#	Program:	/corina/corina34_cracker 3.40 0067  02.08.2006

@<TRIPOS>MOLECULE
ASD03430826
  53   59    0    0    0
SMALL
NO_CHARGES


@<TRIPOS>ATOM
   1 O1            -0.0164     1.3592     0.0095 O.3     
   2 C2             0.0021    -0.0041     0.0020 C.ar    
   3 C3             1.2402    -0.4882    -0.4138 C.ar    
   4 C4             2.1042     0.7143    -0.6808 C.3     
   5 C5             1.3355     1.8558    -0.0007 C.3     
   6 O6            -1.6121    -3.3142     0.5370 O.3     
   7 C7            -0.7764    -2.2766     0.2540 C.ar    
   8 C8             0.4629    -2.7338    -0.1763 C.ar    
   9 C9             0.4020    -4.2487    -0.1812 C.3     
  10 C10           -1.1212    -4.5067    -0.0982 C.3     
  11 C11            1.4638    -1.8454    -0.5042 C.ar    
  12 C12           -0.9997    -0.9068     0.3364 C.ar    
  13 N13            4.3410     0.7055    -1.1512 N.am    
  14 C14            3.4877     0.5590    -0.1180 C.2     
  15 C15            2.2971     0.9660    -2.1468 C.ar    
  16 C16            1.4331     1.1879    -3.1958 C.ar    
  17 C17            1.9293     1.3929    -4.4709 C.ar    
  18 C18            3.2948     1.3746    -4.6892 C.ar    
  19 C19            4.1645     1.1528    -3.6418 C.ar    
  20 C20            3.6739     0.9460    -2.3548 C.ar    
  21 O21            3.7800     0.3441     1.0393 O.2     
  22 C22            5.7983     0.6223    -1.0264 C.3     
  23 O23            7.4538    -4.7164    -1.7675 O.3     
  24 C24            7.4039    -5.2409    -3.0988 C.3     
  25 C25            8.0225    -4.2047    -4.0469 C.3     
  26 O26            7.2624    -2.9954    -3.9465 O.3     
  27 C27            6.9596    -2.5659    -2.6909 C.ar    
  28 C28            7.0528    -3.4262    -1.6030 C.ar    
  29 C29            6.5536    -1.2539    -2.4998 C.ar    
  30 C30            6.2394    -0.8041    -1.2310 C.ar    
  31 C31            6.3295    -1.6601    -0.1497 C.ar    
  32 C32            6.7354    -2.9688    -0.3330 C.ar    
  33 H33            1.4066     2.7727    -0.5858 H       
  34 H34            1.6972     2.0147     1.0152 H       
  35 H35            0.8157    -4.6523    -1.1054 H       
  36 H36            0.9151    -4.6622     0.6870 H       
  37 H37           -1.3314    -5.3843     0.5131 H       
  38 H38           -1.5489    -4.6174    -1.0946 H       
  39 H39            2.4247    -2.2129    -0.8329 H       
  40 H40           -1.9614    -0.5408     0.6641 H       
  41 H41            0.3671     1.2016    -3.0231 H       
  42 H42            1.2518     1.5664    -5.2939 H       
  43 H43            3.6821     1.5344    -5.6846 H       
  44 H44            5.2295     1.1391    -3.8204 H       
  45 H45            6.2643     1.2582    -1.7791 H       
  46 H46            6.0975     0.9562    -0.0329 H       
  47 H47            7.9714    -6.1702    -3.1493 H       
  48 H48            6.3679    -5.4263    -3.3823 H       
  49 H49            9.0563    -4.0140    -3.7590 H       
  50 H50            7.9881    -4.5765    -5.0709 H       
  51 H51            6.4821    -0.5830    -3.3431 H       
  52 H52            6.0827    -1.3059     0.8403 H       
  53 H53            6.8050    -3.6357     0.5136 H       
@<TRIPOS>BOND
   1    1    2 1
   2    1    5 1
   3    2    3 ar
   4    2   12 ar
   5    3    4 1
   6    3   11 ar
   7    4    5 1
   8    4   14 1
   9    4   15 1
  10    5   33 1
  11    5   34 1
  12    6    7 1
  13    6   10 1
  14    7    8 ar
  15    7   12 ar
  16    8    9 1
  17    8   11 ar
  18    9   10 1
  19    9   35 1
  20    9   36 1
  21   10   37 1
  22   10   38 1
  23   11   39 1
  24   12   40 1
  25   13   14 am
  26   13   20 1
  27   13   22 1
  28   14   21 2
  29   15   16 ar
  30   15   20 ar
  31   16   17 ar
  32   16   41 1
  33   17   18 ar
  34   17   42 1
  35   18   19 ar
  36   18   43 1
  37   19   20 ar
  38   19   44 1
  39   22   30 1
  40   22   45 1
  41   22   46 1
  42   23   24 1
  43   23   28 1
  44   24   25 1
  45   24   47 1
  46   24   48 1
  47   25   26 1
  48   25   49 1
  49   25   50 1
  50   26   27 1
  51   27   28 ar
  52   27   29 ar
  53   28   32 ar
  54   29   30 ar
  55   29   51 1
  56   30   31 ar
  57   31   32 ar
  58   31   52 1
  59   32   53 1

#	End of record

