#	Name: ASD01816004
#	Creating user name:	WinNT
#	Creation time:	15. 06. 2019 19:34

#	Modifying user name:	WinNT
#	Modification time:	15. 06. 2019 19:34

#	Program:	/corina/corina34_cracker 3.40 0067  02.08.2006

@<TRIPOS>MOLECULE
ASD01816004
  51   55    0    0    0
SMALL
NO_CHARGES


@<TRIPOS>ATOM
   1 C1            -0.0167     1.3813     0.0096 C.ar    
   2 C2             0.0021    -0.0041     0.0020 C.ar    
   3 C3             1.1984    -0.6909    -0.0131 C.ar    
   4 C4             2.4015     0.0059    -0.0209 C.ar    
   5 C5             2.3790     1.4106    -0.0132 C.ar    
   6 C6             1.1663     2.0916     0.0022 C.ar    
   7 N7             3.6053    -0.6772    -0.0356 N.pl3   
   8 C8             4.7970    -0.0586    -0.0433 C.2     
   9 C9             4.9000     1.3103    -0.0373 C.2     
  10 C10            3.6670     2.1301    -0.0217 C.2     
  11 C11            5.9971     2.2729    -0.0432 C.2     
  12 N12            5.4245     3.4960    -0.0323 N.am    
  13 N13            4.0323     3.3799    -0.0195 N.2     
  14 C14            6.1264     4.7082    -0.0333 C.ar    
  15 O15            7.1914     2.0229    -0.0548 O.2     
  16 C16            3.5779    -2.1419    -0.0427 C.3     
  17 C17            6.5546     5.2634    -1.2317 C.ar    
  18 C18            7.2466     6.4588    -1.2297 C.ar    
  19 C19            7.5142     7.1036    -0.0359 C.ar    
  20 C20            7.0900     6.5550     1.1603 C.ar    
  21 C21            6.3912     5.3614     1.1656 C.ar    
  22 F22            5.9763     4.8253     2.3342 F       
  23 C23            3.5548    -2.6446    -1.4876 C.3     
  24 C24            3.4006    -4.1668    -1.4956 C.3     
  25 C25            3.3775    -4.6695    -2.9405 C.3     
  26 C26            2.2005    -4.0337    -3.6829 C.3     
  27 C27            2.3547    -2.5115    -3.6749 C.3     
  28 C28            2.3778    -2.0088    -2.2300 C.3     
  29 O29            4.7767    -2.2862    -2.1362 O.3     
  30 H30           -0.9602     1.9068     0.0170 H       
  31 H31           -0.9289    -0.5516     0.0083 H       
  32 H32            1.2004    -1.7709    -0.0186 H       
  33 H33            1.1506     3.1715     0.0077 H       
  34 H34            5.6983    -0.6536    -0.0540 H       
  35 H35            4.4657    -2.5244     0.4609 H       
  36 H36            2.6861    -2.4912     0.4778 H       
  37 H37            6.3471     4.7607    -2.1648 H       
  38 H38            7.5796     6.8905    -2.1620 H       
  39 H39            8.0561     8.0378    -0.0379 H       
  40 H40            7.3009     7.0609     2.0909 H       
  41 H41            4.2392    -4.6197    -0.9667 H       
  42 H42            2.4686    -4.4402    -1.0009 H       
  43 H43            4.3095    -4.3961    -3.4352 H       
  44 H44            3.2677    -5.7539    -2.9462 H       
  45 H45            2.1840    -4.3918    -4.7123 H       
  46 H46            1.2685    -4.3071    -3.1882 H       
  47 H47            3.2867    -2.2381    -4.1696 H       
  48 H48            1.5162    -2.0586    -4.2038 H       
  49 H49            1.4458    -2.2822    -1.7353 H       
  50 H50            2.4877    -0.9244    -2.2243 H       
  51 H51            4.9404    -1.3337    -2.1680 H       
@<TRIPOS>BOND
   1    1    2 ar
   2    1    6 ar
   3    1   30 1
   4    2    3 ar
   5    2   31 1
   6    3    4 ar
   7    3   32 1
   8    4    5 ar
   9    4    7 1
  10    5    6 ar
  11    5   10 1
  12    6   33 1
  13    7    8 1
  14    7   16 1
  15    8    9 2
  16    8   34 1
  17    9   10 1
  18    9   11 1
  19   10   13 2
  20   11   12 am
  21   11   15 2
  22   12   13 1
  23   12   14 1
  24   14   17 ar
  25   14   21 ar
  26   16   23 1
  27   16   35 1
  28   16   36 1
  29   17   18 ar
  30   17   37 1
  31   18   19 ar
  32   18   38 1
  33   19   20 ar
  34   19   39 1
  35   20   21 ar
  36   20   40 1
  37   21   22 1
  38   23   24 1
  39   23   29 1
  40   23   28 1
  41   24   25 1
  42   24   41 1
  43   24   42 1
  44   25   26 1
  45   25   43 1
  46   25   44 1
  47   26   27 1
  48   26   45 1
  49   26   46 1
  50   27   28 1
  51   27   47 1
  52   27   48 1
  53   28   49 1
  54   28   50 1
  55   29   51 1

#	End of record

