#	Name: ASD01150442
#	Creating user name:	WinNT
#	Creation time:	15. 06. 2019 19:04

#	Modifying user name:	WinNT
#	Modification time:	15. 06. 2019 19:04

#	Program:	/corina/corina34_cracker 3.40 0067  02.08.2006

@<TRIPOS>MOLECULE
ASD01150442
  49   51    0    0    0
SMALL
NO_CHARGES


@<TRIPOS>ATOM
   1 C1             0.0380     0.9217     0.1479 C.ar    
   2 C2             0.1796    -0.3193     0.7365 C.ar    
   3 C3            -0.8324    -1.2561     0.6307 C.ar    
   4 C4            -1.9888    -0.9537    -0.0643 C.ar    
   5 C5            -2.1367     0.2856    -0.6559 C.ar    
   6 C6            -1.1248     1.2307    -0.5467 C.ar    
   7 N7            -1.2714     2.4871    -1.1448 N.am    
   8 C8            -2.3288     3.2538    -0.8253 C.2     
   9 N9            -2.5008     4.4677    -1.3810 N.am    
  10 C10           -1.6046     4.9348    -2.2749 C.2     
  11 C11           -0.4458     4.1010    -2.6286 C.2     
  12 N12           -0.3121     2.9304    -2.0628 N.2     
  13 O13           -1.7533     6.0310    -2.7820 O.2     
  14 C14           -3.6623     5.2822    -1.0153 C.3     
  15 O15           -3.1437     2.8435    -0.0211 O.2     
  16 C16           -3.3149     6.1506     0.1663 C.ar    
  17 C17           -2.7847     7.4113    -0.0353 C.ar    
  18 C18           -2.4661     8.2088     1.0475 C.ar    
  19 C19           -2.6781     7.7446     2.3346 C.ar    
  20 C20           -3.2092     6.4818     2.5353 C.ar    
  21 C21           -3.5319     5.6882     1.4509 C.ar    
  22 O22            0.4741     4.5429    -3.5252 O.3     
  23 C23            1.5697     3.6719    -3.8135 C.3     
  24 F24           -2.3667     8.5232     3.3939 F       
  25 C25            1.1409     1.9420     0.2641 C.3     
  26 N26            2.1706     1.4471     1.1876 N.3     
  27 C27            3.4233     2.1980     1.0307 C.3     
  28 C28            1.6982     1.4956     2.5777 C.3     
  29 H29            1.0818    -0.5588     1.2798 H       
  30 H30           -0.7189    -2.2262     1.0918 H       
  31 H31           -2.7771    -1.6875    -0.1450 H       
  32 H32           -3.0399     0.5209    -1.1992 H       
  33 H33           -3.9444     5.9122    -1.8588 H       
  34 H34           -4.4957     4.6299    -0.7543 H       
  35 H35           -2.6191     7.7730    -1.0394 H       
  36 H36           -2.0516     9.1935     0.8897 H       
  37 H37           -3.3750     6.1187     3.5388 H       
  38 H38           -3.9461     4.7031     1.6072 H       
  39 H39            2.2278     4.1449    -4.5424 H       
  40 H40            2.1259     3.4723    -2.8975 H       
  41 H41            1.1911     2.7343    -4.2204 H       
  42 H42            1.5841     2.1114    -0.7172 H       
  43 H43            0.7315     2.8780     0.6443 H       
  44 H44            3.2436     3.2525     1.2404 H       
  45 H45            4.1683     1.8112     1.7260 H       
  46 H46            3.7877     2.0876     0.0094 H       
  47 H47            0.7543     0.9568     2.6597 H       
  48 H48            2.4389     1.0323     3.2295 H       
  49 H49            1.5510     2.5338     2.8754 H       
@<TRIPOS>BOND
   1    1    2 ar
   2    1   25 1
   3    1    6 ar
   4    2    3 ar
   5    2   29 1
   6    3    4 ar
   7    3   30 1
   8    4    5 ar
   9    4   31 1
  10    5    6 ar
  11    5   32 1
  12    6    7 1
  13    7    8 am
  14    7   12 1
  15    8    9 am
  16    8   15 2
  17    9   10 am
  18    9   14 1
  19   10   11 1
  20   10   13 2
  21   11   12 2
  22   11   22 1
  23   14   16 1
  24   14   33 1
  25   14   34 1
  26   16   17 ar
  27   16   21 ar
  28   17   18 ar
  29   17   35 1
  30   18   19 ar
  31   18   36 1
  32   19   20 ar
  33   19   24 1
  34   20   21 ar
  35   20   37 1
  36   21   38 1
  37   22   23 1
  38   23   39 1
  39   23   40 1
  40   23   41 1
  41   25   26 1
  42   25   42 1
  43   25   43 1
  44   26   27 1
  45   26   28 1
  46   27   44 1
  47   27   45 1
  48   27   46 1
  49   28   47 1
  50   28   48 1
  51   28   49 1

#	End of record

