#	Name: ASD01880967
#	Creating user name:	WinNT
#	Creation time:	15. 06. 2019 19:41

#	Modifying user name:	WinNT
#	Modification time:	15. 06. 2019 19:41

#	Program:	/corina/corina34_cracker 3.40 0067  02.08.2006

@<TRIPOS>MOLECULE
ASD01880967
  47   50    0    0    0
SMALL
NO_CHARGES


@<TRIPOS>ATOM
   1 N1            -0.0140     1.3135    -0.0043 N.ar    
   2 C2             0.0050    -0.0048    -0.0251 C.ar    
   3 N3             1.1360    -0.6834    -0.0540 N.ar    
   4 C4             2.3058    -0.0603    -0.0636 C.ar    
   5 C5             2.3343     1.3205    -0.0430 C.ar    
   6 C6             1.1199     2.0086    -0.0122 C.ar    
   7 C7             3.6440     2.0659    -0.0525 C.3     
   8 O8             4.7241     1.1307    -0.0840 O.3     
   9 C9             5.9813     1.6417    -0.0963 C.ar    
  10 C10            7.0789     0.7863    -0.1268 C.ar    
  11 C11            8.3502     1.3032    -0.1397 C.ar    
  12 C12            8.5519     2.6876    -0.1223 C.ar    
  13 C13            7.4457     3.5434    -0.0915 C.ar    
  14 C14            6.1709     3.0177    -0.0841 C.ar    
  15 C15            9.7208     0.6740    -0.1718 C.3     
  16 N16           10.6808     1.7837    -0.1710 N.am    
  17 C17           10.0018     2.9432    -0.1424 C.2     
  18 O18           10.5124     4.0467    -0.1346 O.2     
  19 Cl19          -1.4993    -0.8712    -0.0138 Cl      
  20 Cl20           7.6772     5.2637    -0.0690 Cl      
  21 N21            1.0962     3.3947     0.0094 N.pl3   
  22 C22           -0.1219     4.0744    -0.0809 C.ar    
  23 C23           -0.3049     5.2689     0.6042 C.ar    
  24 C24           -1.5096     5.9379     0.5130 C.ar    
  25 C25           -2.5332     5.4197    -0.2590 C.ar    
  26 C26           -2.3544     4.2308    -0.9423 C.ar    
  27 C27           -1.1501     3.5599    -0.8603 C.ar    
  28 C28           12.6230     1.6251    -1.6489 C.3     
  29 C29           12.1395     1.6497    -0.1975 C.3     
  30 H30            3.2258    -0.6256    -0.0869 H       
  31 H31            3.6916     2.7057    -0.9337 H       
  32 H32            3.7200     2.6785     0.8458 H       
  33 H33            6.9303    -0.2833    -0.1401 H       
  34 H34            5.3168     3.6782    -0.0608 H       
  35 H35            9.8677     0.0507     0.7103 H       
  36 H36            9.8382     0.0775    -1.0765 H       
  37 H37            1.9250     3.8927     0.0871 H       
  38 H38            0.4940     5.6737     1.2079 H       
  39 H39           -1.6525     6.8666     1.0453 H       
  40 H40           -3.4746     5.9445    -0.3281 H       
  41 H41           -3.1560     3.8287    -1.5441 H       
  42 H42           -1.0110     2.6315    -1.3943 H       
  43 H43           12.1710     0.7800    -2.1682 H       
  44 H44           12.3342     2.5523    -2.1439 H       
  45 H45           13.7083     1.5254    -1.6687 H       
  46 H46           12.5914     2.4948     0.3217 H       
  47 H47           12.4282     0.7225     0.2974 H       
@<TRIPOS>BOND
   1    1    2 ar
   2    1    6 ar
   3    2    3 ar
   4    2   19 1
   5    3    4 ar
   6    4    5 ar
   7    4   30 1
   8    5    6 ar
   9    5    7 1
  10    6   21 1
  11    7    8 1
  12    7   31 1
  13    7   32 1
  14    8    9 1
  15    9   10 ar
  16    9   14 ar
  17   10   11 ar
  18   10   33 1
  19   11   12 ar
  20   11   15 1
  21   12   13 ar
  22   12   17 1
  23   13   14 ar
  24   13   20 1
  25   14   34 1
  26   15   16 1
  27   15   35 1
  28   15   36 1
  29   16   17 am
  30   16   29 1
  31   17   18 2
  32   21   22 1
  33   21   37 1
  34   22   23 ar
  35   22   27 ar
  36   23   24 ar
  37   23   38 1
  38   24   25 ar
  39   24   39 1
  40   25   26 ar
  41   25   40 1
  42   26   27 ar
  43   26   41 1
  44   27   42 1
  45   28   29 1
  46   28   43 1
  47   28   44 1
  48   28   45 1
  49   29   46 1
  50   29   47 1

#	End of record

