#	Name: ASD03490074
#	Creating user name:	WinNT
#	Creation time:	15. 06. 2019 20:42

#	Modifying user name:	WinNT
#	Modification time:	15. 06. 2019 20:42

#	Program:	/corina/corina34_cracker 3.40 0067  02.08.2006

@<TRIPOS>MOLECULE
ASD03490074
  85   87    0    0    0
SMALL
NO_CHARGES


@<TRIPOS>ATOM
   1 C1             2.8880     2.0443    -2.2731 C.3     
   2 C2             3.2533     1.8962    -0.7938 C.3     
   3 O3             2.2442     1.1331    -0.1294 O.3     
   4 C4             2.0871    -0.1935    -0.6368 C.3     
   5 C5             1.6749    -0.1294    -2.1098 C.3     
   6 C6             2.7327     0.6528    -2.8943 C.3     
   7 C7             3.4117    -0.9485    -0.5100 C.3     
   8 O8             2.3201     0.7808    -4.2565 O.3     
   9 O9             4.5106     1.2269    -0.6780 O.3     
  10 O10            4.0605    -0.5713     0.7061 O.3     
  11 C11            3.1413    -2.4544    -0.4979 C.3     
  12 O12            3.3872    -2.9930    -1.7985 O.3     
  13 C13            4.0653    -3.1304     0.5171 C.3     
  14 O14            3.7286    -4.5394     0.6148 O.3     
  15 C15            4.4514    -5.2809     1.4689 C.2     
  16 C16            4.1594    -6.7512     1.6238 C.3     
  17 O17            5.3362    -4.7695     2.1135 O.2     
  18 C18            4.3450    -7.4527     0.2769 C.3     
  19 C19            4.0485    -8.9454     0.4342 C.3     
  20 C20            3.3854    -6.8475    -0.7498 C.3     
  21 N21            5.0781    -7.3306     2.6069 N.am    
  22 C22            4.7275    -8.4421     3.2837 C.2     
  23 O23            5.5719    -8.9746     4.1871 O.3     
  24 O24            3.6494    -8.9636     3.0785 O.2     
  25 C25            5.1282   -10.1719     4.8784 C.3     
  26 C26            6.1960   -10.6199     5.8429 C.ar    
  27 C27            6.1953   -10.1487     7.1425 C.ar    
  28 C28            7.1747   -10.5595     8.0272 C.ar    
  29 C29            8.1547   -11.4419     7.6125 C.ar    
  30 C30            8.1549   -11.9138     6.3132 C.ar    
  31 C31            7.1729   -11.5063     5.4297 C.ar    
  32 N32            1.5708    -1.4877    -2.6486 N.am    
  33 O33            0.5821    -0.7529    -4.4937 O.2     
  34 C34            1.0050    -1.6929    -3.8545 C.2     
  35 C35            0.8980    -3.0901    -4.4088 C.3     
  36 C36            3.3499     3.2605    -0.1610 C.2     
  37 O37            2.6947     3.5189     0.8207 O.2     
  38 O38            4.1639     4.1887    -0.6880 O.3     
  39 C39            5.1670     6.3859    -0.7534 C.ar    
  40 C40            4.7148     7.1879    -1.7845 C.ar    
  41 C41            5.5948     8.0227    -2.4476 C.ar    
  42 C42            6.9268     8.0557    -2.0794 C.ar    
  43 C43            7.3787     7.2544    -1.0477 C.ar    
  44 C44            6.4991     6.4186    -0.3855 C.ar    
  45 C45            4.2065     5.4804    -0.0263 C.3     
  46 H46            1.9491     2.5904    -2.3635 H       
  47 H47            3.6782     2.5882    -2.7907 H       
  48 H48            1.3168    -0.7121    -0.0660 H       
  49 H49            0.7114     0.3728    -2.1969 H       
  50 H50            3.6852     0.1247    -2.8486 H       
  51 H51            4.0532    -0.7014    -1.3558 H       
  52 H52            2.9444     1.2666    -4.8126 H       
  53 H53            4.8689     1.2156     0.2201 H       
  54 H54            3.5739    -0.8182     1.5044 H       
  55 H55            2.1028    -2.6348    -0.2204 H       
  56 H56            4.2939    -2.8684    -2.1108 H       
  57 H57            5.1004    -3.0259     0.1920 H       
  58 H58            3.9412    -2.6587     1.4919 H       
  59 H59            3.1324    -6.8837     1.9641 H       
  60 H60            5.3720    -7.3201    -0.0634 H       
  61 H61            3.0215    -9.0780     0.7744 H       
  62 H62            4.1807    -9.4452    -0.5255 H       
  63 H63            4.7321    -9.3765     1.1656 H       
  64 H64            3.5967    -5.7841    -0.8619 H       
  65 H65            3.5176    -7.3473    -1.7094 H       
  66 H66            2.3584    -6.9801    -0.4095 H       
  67 H67            5.9388    -6.9142     2.7707 H       
  68 H68            4.2110    -9.9563     5.4263 H       
  69 H69            4.9402   -10.9624     4.1518 H       
  70 H70            5.4297    -9.4593     7.4665 H       
  71 H71            7.1746   -10.1909     9.0423 H       
  72 H72            8.9203   -11.7624     8.3035 H       
  73 H73            8.9207   -12.6030     5.9891 H       
  74 H74            7.1730   -11.8750     4.4146 H       
  75 H75            1.9091    -2.2395    -2.1374 H       
  76 H76            1.3281    -3.7966    -3.6988 H       
  77 H77           -0.1509    -3.3356    -4.5753 H       
  78 H78            1.4392    -3.1489    -5.3530 H       
  79 H79            3.6742     7.1621    -2.0721 H       
  80 H80            5.2416     8.6488    -3.2537 H       
  81 H81            7.6144     8.7074    -2.5980 H       
  82 H82            8.4195     7.2796    -0.7605 H       
  83 H83            6.8524     5.7919     0.4201 H       
  84 H84            3.2115     5.9254    -0.0336 H       
  85 H85            4.5387     5.3503     1.0036 H       
@<TRIPOS>BOND
   1    1    2 1
   2    1    6 1
   3    1   46 1
   4    1   47 1
   5    2    3 1
   6    2    9 1
   7    2   36 1
   8    3    4 1
   9    4    5 1
  10    4    7 1
  11    4   48 1
  12    5    6 1
  13    5   32 1
  14    5   49 1
  15    6    8 1
  16    6   50 1
  17    7   10 1
  18    7   11 1
  19    7   51 1
  20    8   52 1
  21    9   53 1
  22   10   54 1
  23   11   12 1
  24   11   13 1
  25   11   55 1
  26   12   56 1
  27   13   14 1
  28   13   57 1
  29   13   58 1
  30   14   15 1
  31   15   16 1
  32   15   17 2
  33   16   18 1
  34   16   21 1
  35   16   59 1
  36   18   19 1
  37   18   20 1
  38   18   60 1
  39   19   61 1
  40   19   62 1
  41   19   63 1
  42   20   64 1
  43   20   65 1
  44   20   66 1
  45   21   22 am
  46   21   67 1
  47   22   23 1
  48   22   24 2
  49   23   25 1
  50   25   26 1
  51   25   68 1
  52   25   69 1
  53   26   27 ar
  54   26   31 ar
  55   27   28 ar
  56   27   70 1
  57   28   29 ar
  58   28   71 1
  59   29   30 ar
  60   29   72 1
  61   30   31 ar
  62   30   73 1
  63   31   74 1
  64   32   34 am
  65   32   75 1
  66   33   34 2
  67   34   35 1
  68   35   76 1
  69   35   77 1
  70   35   78 1
  71   36   37 2
  72   36   38 1
  73   38   45 1
  74   39   40 ar
  75   39   44 ar
  76   39   45 1
  77   40   41 ar
  78   40   79 1
  79   41   42 ar
  80   41   80 1
  81   42   43 ar
  82   42   81 1
  83   43   44 ar
  84   43   82 1
  85   44   83 1
  86   45   84 1
  87   45   85 1

#	End of record

