#	Name: ASD03330972
#	Creating user name:	WinNT
#	Creation time:	15. 06. 2019 20:38

#	Modifying user name:	WinNT
#	Modification time:	15. 06. 2019 20:38

#	Program:	/corina/corina34_cracker 3.40 0067  02.08.2006

@<TRIPOS>MOLECULE
ASD03330972
  55   58    0    0    0
SMALL
NO_CHARGES


@<TRIPOS>ATOM
   1 N1            -0.0164     1.3557     0.0652 N.pl3   
   2 C2             0.0029    -0.0038     0.0363 C.2     
   3 C3             1.2396    -0.8638     0.0224 C.3     
   4 N4             2.1703    -0.3867     1.0572 N.3     
   5 C5             3.0625     0.6482     0.5315 C.3     
   6 C6             2.3511     1.5033    -0.5132 C.3     
   7 C7             1.1626     2.2241     0.1289 C.3     
   8 C8            -1.3235     1.7465     0.0361 C.2     
   9 N9            -2.0807     0.6747     0.0088 N.2     
  10 C10           -1.2922    -0.4229     0.0110 C.2     
  11 C11           -1.7519    -1.8226    -0.0111 C.2     
  12 O12           -0.9411    -2.7291    -0.0074 O.2     
  13 N13           -3.0709    -2.0984    -0.0353 N.am    
  14 C14           -1.8064     3.1442     0.0359 C.ar    
  15 C15           -2.7907     3.5459    -0.8712 C.ar    
  16 C16           -3.2386     4.8530    -0.8666 C.ar    
  17 C17           -2.7135     5.7643     0.0344 C.ar    
  18 C18           -1.7355     5.3706     0.9370 C.ar    
  19 C19           -1.2851     4.0651     0.9453 C.ar    
  20 F20           -1.2268     6.2648     1.8127 F       
  21 F21           -3.1545     7.0413     0.0344 F       
  22 F22           -3.3031     2.6580    -1.7512 F       
  23 C23           -3.5280    -3.4902    -0.0572 C.3     
  24 C24           -7.0648    -5.0046    -0.1760 C.3     
  25 C25           -5.5352    -4.9721    -0.2309 C.3     
  26 C26           -5.0574    -3.5243    -0.0823 C.3     
  27 C27           -5.6044    -2.9497     1.2281 C.3     
  28 C28           -7.1313    -3.0604     1.2267 C.3     
  29 O29           -7.5083    -4.4279     1.0540 O.3     
  30 C30            2.9368    -1.5012     1.6302 C.3     
  31 H31            0.9660    -1.8987     0.2277 H       
  32 H32            1.7174    -0.7992    -0.9551 H       
  33 H33            3.3934     1.2860     1.3512 H       
  34 H34            3.9312     0.1740     0.0748 H       
  35 H35            3.0476     2.2395    -0.9144 H       
  36 H36            1.9942     0.8653    -1.3217 H       
  37 H37            0.9630     3.1498    -0.4108 H       
  38 H38            1.3927     2.4503     1.1700 H       
  39 H39           -3.7176    -1.3755    -0.0382 H       
  40 H40           -3.9992     5.1647    -1.5671 H       
  41 H41           -0.5272     3.7588     1.6511 H       
  42 H42           -3.1388    -3.9864    -0.9462 H       
  43 H43           -3.1676    -4.0050     0.8334 H       
  44 H44           -7.4708    -4.4348    -1.0118 H       
  45 H45           -7.4089    -6.0370    -0.2383 H       
  46 H46           -5.1287    -5.5750     0.5810 H       
  47 H47           -5.1965    -5.3711    -1.1871 H       
  48 H48           -5.4216    -2.9321    -0.9218 H       
  49 H49           -5.1992    -3.5118     2.0695 H       
  50 H50           -5.3151    -1.9024     1.3154 H       
  51 H51           -7.5233    -2.6922     2.1748 H       
  52 H52           -7.5381    -2.4652     0.4092 H       
  53 H53            3.4551    -2.0336     0.8327 H       
  54 H54            3.6658    -1.1131     2.3415 H       
  55 H55            2.2582    -2.1840     2.1415 H       
@<TRIPOS>BOND
   1    1    2 1
   2    1    7 1
   3    1    8 1
   4    2    3 1
   5    2   10 2
   6    3    4 1
   7    3   31 1
   8    3   32 1
   9    4    5 1
  10    4   30 1
  11    5    6 1
  12    5   33 1
  13    5   34 1
  14    6    7 1
  15    6   35 1
  16    6   36 1
  17    7   37 1
  18    7   38 1
  19    8    9 2
  20    8   14 1
  21    9   10 1
  22   10   11 1
  23   11   12 2
  24   11   13 am
  25   13   23 1
  26   13   39 1
  27   14   15 ar
  28   14   19 ar
  29   15   16 ar
  30   15   22 1
  31   16   17 ar
  32   16   40 1
  33   17   18 ar
  34   17   21 1
  35   18   19 ar
  36   18   20 1
  37   19   41 1
  38   23   26 1
  39   23   42 1
  40   23   43 1
  41   24   25 1
  42   24   29 1
  43   24   44 1
  44   24   45 1
  45   25   26 1
  46   25   46 1
  47   25   47 1
  48   26   27 1
  49   26   48 1
  50   27   28 1
  51   27   49 1
  52   27   50 1
  53   28   29 1
  54   28   51 1
  55   28   52 1
  56   30   53 1
  57   30   54 1
  58   30   55 1

#	End of record

