#	Name: ASD07300475
#	Creating user name:	WinNT
#	Creation time:	15. 06. 2019 21:09

#	Modifying user name:	WinNT
#	Modification time:	15. 06. 2019 21:09

#	Program:	/corina/corina34_cracker 3.40 0067  02.08.2006

@<TRIPOS>MOLECULE
ASD07300475
  37   41    0    0    0
SMALL
NO_CHARGES


@<TRIPOS>ATOM
   1 C1            -0.0169     1.3941     0.0097 C.ar    
   2 C2             0.0021    -0.0041     0.0020 C.ar    
   3 C3             1.2200    -0.6674    -0.0125 C.ar    
   4 C4             2.3808     0.0923    -0.0188 C.ar    
   5 C5             2.2878     1.4713    -0.0106 C.ar    
   6 N6             1.1161     2.0768     0.0026 N.ar    
   7 C7            -2.1139     0.6622     0.0347 C.2     
   8 N8            -1.3543     1.7733     0.0301 N.am    
   9 N9            -1.3235    -0.4279     0.0124 N.am    
  10 O10           -3.3304     0.6453     0.0517 O.2     
  11 C11           -1.8316     3.0918     0.0441 C.ar    
  12 C12           -3.1985     3.3351     0.0641 C.ar    
  13 C13           -3.6685     4.6329     0.0779 C.ar    
  14 C14           -2.7740     5.6953     0.0722 C.ar    
  15 C15           -1.4069     5.4519     0.0526 C.ar    
  16 C16           -0.9371     4.1540     0.0437 C.ar    
  17 C17           -2.6526     8.0679     0.7247 C.ar    
  18 C18           -3.4611     9.1964     0.4800 C.ar    
  19 C19           -3.0871    10.4349     1.0138 C.ar    
  20 C20           -1.9386    10.4975     1.7593 C.ar    
  21 C21           -1.1883     9.3480     1.9620 C.ar    
  22 N22           -1.5510     8.1900     1.4543 N.ar    
  23 N23           -4.4132     7.4606    -0.5505 N.2     
  24 N24           -3.2511     7.0131     0.0857 N.pl3   
  25 C25           -4.5763     8.7361    -0.3400 C.2     
  26 H26            1.2635    -1.7465    -0.0183 H       
  27 H27            3.3476    -0.3890    -0.0297 H       
  28 H28            3.1908     2.0638    -0.0151 H       
  29 H29           -1.6258    -1.3496     0.0103 H       
  30 H30           -3.8941     2.5089     0.0686 H       
  31 H31           -4.7317     4.8221     0.0928 H       
  32 H32           -0.7113     6.2780     0.0477 H       
  33 H33            0.1261     3.9646     0.0323 H       
  34 H34           -3.6865    11.3168     0.8427 H       
  35 H35           -1.6192    11.4366     2.1864 H       
  36 H36           -0.2844     9.4056     2.5503 H       
  37 H37           -5.3882     9.3443    -0.7107 H       
@<TRIPOS>BOND
   1    1    2 ar
   2    1    6 ar
   3    1    8 1
   4    2    3 ar
   5    2    9 1
   6    3    4 ar
   7    3   26 1
   8    4    5 ar
   9    4   27 1
  10    5    6 ar
  11    5   28 1
  12    7    8 am
  13    7    9 am
  14    7   10 2
  15    8   11 1
  16    9   29 1
  17   11   12 ar
  18   11   16 ar
  19   12   13 ar
  20   12   30 1
  21   13   14 ar
  22   13   31 1
  23   14   15 ar
  24   14   24 1
  25   15   16 ar
  26   15   32 1
  27   16   33 1
  28   17   18 ar
  29   17   22 ar
  30   17   24 1
  31   18   19 ar
  32   18   25 1
  33   19   20 ar
  34   19   34 1
  35   20   21 ar
  36   20   35 1
  37   21   22 ar
  38   21   36 1
  39   23   24 1
  40   23   25 2
  41   25   37 1

#	End of record

