#	Name: ASD00111129
#	Creating user name:	WinNT
#	Creation time:	15. 06. 2019 18:31

#	Modifying user name:	WinNT
#	Modification time:	15. 06. 2019 18:31

#	Program:	/corina/corina34_cracker 3.40 0067  02.08.2006

@<TRIPOS>MOLECULE
ASD00111129
  32   33    0    0    0
SMALL
NO_CHARGES


@<TRIPOS>ATOM
   1 N1             0.2937     1.5590     0.0549 N.am    
   2 C2             0.1638     0.1070    -0.0171 C.3     
   3 C3             0.6303    -0.5203     1.3013 C.3     
   4 C4             2.1404    -0.6028     1.2904 C.ar    
   5 C5             2.8971     0.5385     1.3940 C.ar    
   6 C6             2.2275     1.8888     1.5195 C.3     
   7 C7             1.5786     2.2409     0.1754 C.3     
   8 C8             4.2786     0.4625     1.3855 C.ar    
   9 C9             4.8982    -0.7707     1.2715 C.ar    
  10 C10            4.1343    -1.9218     1.1664 C.ar    
  11 C11            2.7533    -1.8382     1.1762 C.ar    
  12 C12            0.1720     0.3491     2.4739 C.3     
  13 F13            6.2468    -0.8513     1.2624 F       
  14 Cl14           4.9097    -3.4684     1.0236 Cl      
  15 C15           -0.8266     2.3065     0.0020 C.2     
  16 O16           -1.9092     1.7700    -0.1030 O.2     
  17 C17           -0.7340     3.8090     0.0733 C.3     
  18 F18           -2.0181     4.3593    -0.0004 F       
  19 F19           -0.1352     4.1825     1.2813 F       
  20 F20            0.0372     4.2799    -0.9947 F       
  21 H21           -0.8791    -0.1554    -0.1945 H       
  22 H22            0.7763    -0.2716    -0.8354 H       
  23 H23            0.2100    -1.5213     1.3988 H       
  24 H24            1.4626     1.8471     2.2950 H       
  25 H25            2.9711     2.6434     1.7761 H       
  26 H26            2.2335     1.9264    -0.6371 H       
  27 H27            1.4239     3.3184     0.1189 H       
  28 H28            4.8714     1.3616     1.4670 H       
  29 H29            2.1557    -2.7342     1.0954 H       
  30 H30           -0.7893    -0.0116     2.8397 H       
  31 H31            0.9089     0.2959     3.2753 H       
  32 H32            0.0700     1.3823     2.1421 H       
@<TRIPOS>BOND
   1    1    2 1
   2    1    7 1
   3    1   15 am
   4    2    3 1
   5    2   21 1
   6    2   22 1
   7    3    4 1
   8    3   12 1
   9    3   23 1
  10    4    5 ar
  11    4   11 ar
  12    5    6 1
  13    5    8 ar
  14    6    7 1
  15    6   24 1
  16    6   25 1
  17    7   26 1
  18    7   27 1
  19    8    9 ar
  20    8   28 1
  21    9   10 ar
  22    9   13 1
  23   10   11 ar
  24   10   14 1
  25   11   29 1
  26   12   30 1
  27   12   31 1
  28   12   32 1
  29   15   16 2
  30   15   17 1
  31   17   18 1
  32   17   19 1
  33   17   20 1

#	End of record

