#	Name: ASD01310015
#	Creating user name:	WinNT
#	Creation time:	15. 06. 2019 19:15

#	Modifying user name:	WinNT
#	Modification time:	15. 06. 2019 19:15

#	Program:	/corina/corina34_cracker 3.40 0067  02.08.2006

@<TRIPOS>MOLECULE
ASD01310015
  62   65    0    0    0
SMALL
NO_CHARGES


@<TRIPOS>ATOM
   1 O1            -0.0096     1.2734     0.5786 O.3     
   2 C2            -0.0557    -0.0732     0.5620 C.2     
   3 O3             0.8931    -0.7183     0.9603 O.2     
   4 C4            -1.2591    -0.7642     0.0599 C.2     
   5 C5            -1.2507    -2.0978    -0.0986 C.2     
   6 C6             0.0226    -2.8045    -0.3367 C.2     
   7 O7             0.0542    -4.1516    -0.3454 O.3     
   8 O8             1.0422    -2.1720    -0.5249 O.2     
   9 N9             1.5084     4.3004     2.6132 N.3     
  10 C10            1.0278     4.4312     1.2383 C.3     
  11 C11            0.8602     3.1729     3.2759 C.3     
  12 C12           -0.4738     4.6623     1.1852 C.3     
  13 C13           -1.2518     3.6077     1.9612 C.3     
  14 C14           -0.6503     3.3545     3.3369 C.3     
  15 C15            1.4552     3.2233     0.4203 C.3     
  16 C16            1.2078     1.8862     1.0867 C.3     
  17 C17            1.2341     1.8650     2.5987 C.3     
  18 C18            1.4137     5.5452     3.3717 C.3     
  19 C19           -0.0494    -7.7470    -1.1046 C.3     
  20 C20           -0.7135    -6.6774    -1.9702 C.3     
  21 C21            1.3855    -7.3467    -0.7695 C.3     
  22 N22            2.1659    -7.1306    -1.9831 N.3     
  23 C23            0.1487    -6.3765    -3.1936 C.3     
  24 C24            1.5862    -6.0658    -2.7947 C.3     
  25 C25            1.4162    -6.1163     0.1185 C.3     
  26 C26            1.3482    -4.7828    -0.5872 C.3     
  27 C27            1.6786    -4.7386    -2.0607 C.3     
  28 C28            2.4169    -8.3568    -2.7352 C.3     
  29 H29           -2.1466    -0.1974    -0.1800 H       
  30 H30           -2.1759    -2.6529    -0.0519 H       
  31 H31            1.5193     5.3218     0.8033 H       
  32 H32            1.2357     3.1360     4.3146 H       
  33 H33           -0.7126     5.6555     1.5785 H       
  34 H34           -0.7997     4.6423     0.1354 H       
  35 H35           -2.2845     3.9748     2.0992 H       
  36 H36           -1.3229     2.6842     1.3946 H       
  37 H37           -1.0995     2.4452     3.7600 H       
  38 H38           -0.9000     4.1829     4.0058 H       
  39 H39            0.9245     3.2480    -0.5447 H       
  40 H40            2.5271     3.3179     0.1868 H       
  41 H41            2.0346     1.2098     0.7474 H       
  42 H42            2.2418     1.5720     2.9372 H       
  43 H43            0.5515     1.0776     2.9590 H       
  44 H44            0.3730     5.8667     3.4140 H       
  45 H45            1.7853     5.3832     4.3836 H       
  46 H46            2.0121     6.3145     2.8837 H       
  47 H47           -0.6157    -7.8554    -0.1735 H       
  48 H48           -0.0615    -8.7035    -1.6264 H       
  49 H49           -1.6879    -7.0544    -2.3088 H       
  50 H50           -0.8850    -5.7752    -1.3924 H       
  51 H51            1.8452    -8.1832    -0.2161 H       
  52 H52            0.1259    -7.2289    -3.8757 H       
  53 H53           -0.2709    -5.5114    -3.7206 H       
  54 H54            2.1818    -5.9863    -3.7209 H       
  55 H55            0.5788    -6.1846     0.8354 H       
  56 H56            2.3339    -6.1520     0.7310 H       
  57 H57            2.0891    -4.1150    -0.0762 H       
  58 H58            2.6996    -4.3411    -2.1892 H       
  59 H59            1.0094    -4.0174    -2.5590 H       
  60 H60            1.4672    -8.8025    -3.0311 H       
  61 H61            3.0018    -8.1240    -3.6251 H       
  62 H62            2.9691    -9.0593    -2.1110 H       
@<TRIPOS>BOND
   1    1    2 1
   2    1   16 1
   3    2    3 2
   4    2    4 1
   5    4    5 2
   6    4   29 1
   7    5    6 1
   8    5   30 1
   9    6    7 1
  10    6    8 2
  11    7   26 1
  12    9   10 1
  13    9   11 1
  14    9   18 1
  15   10   12 1
  16   10   15 1
  17   10   31 1
  18   11   14 1
  19   11   17 1
  20   11   32 1
  21   12   13 1
  22   12   33 1
  23   12   34 1
  24   13   14 1
  25   13   35 1
  26   13   36 1
  27   14   37 1
  28   14   38 1
  29   15   16 1
  30   15   39 1
  31   15   40 1
  32   16   17 1
  33   16   41 1
  34   17   42 1
  35   17   43 1
  36   18   44 1
  37   18   45 1
  38   18   46 1
  39   19   20 1
  40   19   21 1
  41   19   47 1
  42   19   48 1
  43   20   23 1
  44   20   49 1
  45   20   50 1
  46   21   25 1
  47   21   22 1
  48   21   51 1
  49   22   24 1
  50   22   28 1
  51   23   24 1
  52   23   52 1
  53   23   53 1
  54   24   27 1
  55   24   54 1
  56   25   26 1
  57   25   55 1
  58   25   56 1
  59   26   27 1
  60   26   57 1
  61   27   58 1
  62   27   59 1
  63   28   60 1
  64   28   61 1
  65   28   62 1

#	End of record

