#	Name: ASD01920030
#	Creating user name:	WinNT
#	Creation time:	15. 06. 2019 20:11

#	Modifying user name:	WinNT
#	Modification time:	15. 06. 2019 20:11

#	Program:	/corina/corina34_cracker 3.40 0067  02.08.2006

@<TRIPOS>MOLECULE
ASD01920030
  55   58    0    0    0
SMALL
NO_CHARGES


@<TRIPOS>ATOM
   1 N1            -0.0158     1.3154     0.0093 N.ar    
   2 C2             0.0021    -0.0041     0.0020 C.ar    
   3 C3             1.1952    -0.6958    -0.0131 C.ar    
   4 C4             2.3950     0.0216    -0.0207 C.ar    
   5 C5             2.3296     1.4180    -0.0126 C.ar    
   6 C6             1.0936     2.0299     0.0025 C.ar    
   7 C7             3.7021    -0.6798    -0.0365 C.2     
   8 C8             3.8985    -2.0756    -0.0458 C.2     
   9 N9             5.1849    -2.3048    -0.0588 N.2     
  10 N10            5.8565    -1.0764    -0.0583 N.pl3   
  11 C11            4.9337    -0.0910    -0.0505 C.2     
  12 C12            7.2469    -0.9000    -0.0693 C.ar    
  13 C13            8.0875    -1.9986    -0.0827 C.ar    
  14 C14            9.4712    -1.8393    -0.0941 C.ar    
  15 C15           10.0011    -0.5724    -0.0611 C.ar    
  16 C16            9.1571     0.5343    -0.0628 C.ar    
  17 C17            7.7888     0.3787    -0.0727 C.ar    
  18 C18           10.2829    -3.1071    -0.1828 C.3     
  19 C19           11.6475    -2.9683     0.4887 C.3     
  20 N20           12.5760    -2.3784    -0.4900 N.am    
  21 C21           12.2405    -1.0746    -1.0627 C.3     
  22 C22           11.4784    -0.3032     0.0167 C.3     
  23 C23           13.7047    -3.0220    -0.8483 C.2     
  24 O24           13.9675    -4.1041    -0.3620 O.2     
  25 O25           14.5410    -2.4659    -1.7449 O.3     
  26 C26           15.7376    -3.2155    -2.0836 C.3     
  27 C27           15.3408    -4.5692    -2.6760 C.3     
  28 C28           16.5578    -2.4306    -3.1093 C.3     
  29 C29           16.5750    -3.4364    -0.8223 C.3     
  30 H30           -0.9300    -0.5496     0.0083 H       
  31 H31            1.2025    -1.7757    -0.0186 H       
  32 H32            3.2335     2.0089    -0.0177 H       
  33 H33            1.0329     3.1081     0.0085 H       
  34 H34            3.1210    -2.8252    -0.0428 H       
  35 H35            5.1336     0.9703    -0.0481 H       
  36 H36            7.6655    -2.9927    -0.0839 H       
  37 H37            9.5807     1.5278    -0.0609 H       
  38 H38            7.1425     1.2440    -0.0739 H       
  39 H39            9.7319    -3.9142     0.2999 H       
  40 H40           10.4297    -3.3602    -1.2328 H       
  41 H41           11.5658    -2.3167     1.3586 H       
  42 H42           12.0092    -3.9499     0.7950 H       
  43 H43           13.1516    -0.5395    -1.3306 H       
  44 H44           11.6109    -1.2048    -1.9429 H       
  45 H45           11.6542     0.7644    -0.1160 H       
  46 H46           11.8452    -0.6052     0.9976 H       
  47 H47           14.7442    -4.4117    -3.5745 H       
  48 H48           16.2390    -5.1319    -2.9302 H       
  49 H49           14.7564    -5.1283    -1.9452 H       
  50 H50           16.8405    -1.4662    -2.6873 H       
  51 H51           17.4561    -2.9933    -3.3635 H       
  52 H52           15.9612    -2.2732    -4.0079 H       
  53 H53           15.9906    -3.9956    -0.0916 H       
  54 H54           17.4732    -3.9991    -1.0765 H       
  55 H55           16.8577    -2.4720    -0.4003 H       
@<TRIPOS>BOND
   1    1    2 ar
   2    1    6 ar
   3    2    3 ar
   4    2   30 1
   5    3    4 ar
   6    3   31 1
   7    4    5 ar
   8    4    7 1
   9    5    6 ar
  10    5   32 1
  11    6   33 1
  12    7    8 1
  13    7   11 2
  14    8    9 2
  15    8   34 1
  16    9   10 1
  17   10   11 1
  18   10   12 1
  19   11   35 1
  20   12   13 ar
  21   12   17 ar
  22   13   14 ar
  23   13   36 1
  24   14   15 ar
  25   14   18 1
  26   15   16 ar
  27   15   22 1
  28   16   17 ar
  29   16   37 1
  30   17   38 1
  31   18   19 1
  32   18   39 1
  33   18   40 1
  34   19   20 1
  35   19   41 1
  36   19   42 1
  37   20   21 1
  38   20   23 am
  39   21   22 1
  40   21   43 1
  41   21   44 1
  42   22   45 1
  43   22   46 1
  44   23   24 2
  45   23   25 1
  46   25   26 1
  47   26   27 1
  48   26   28 1
  49   26   29 1
  50   27   47 1
  51   27   48 1
  52   27   49 1
  53   28   50 1
  54   28   51 1
  55   28   52 1
  56   29   53 1
  57   29   54 1
  58   29   55 1

#	End of record

