#	Name: ASD03540066
#	Creating user name:	WinNT
#	Creation time:	15. 06. 2019 20:42

#	Modifying user name:	WinNT
#	Modification time:	15. 06. 2019 20:42

#	Program:	/corina/corina34_cracker 3.40 0067  02.08.2006

@<TRIPOS>MOLECULE
ASD03540066
  54   56    0    0    0
SMALL
NO_CHARGES


@<TRIPOS>ATOM
   1 C1            -0.0164     1.3579     0.0095 C.2     
   2 N2             0.0021    -0.0041     0.0020 N.am    
   3 C3             1.2284    -0.6238    -0.0131 C.2     
   4 C4             2.3974     0.1025    -0.0208 C.2     
   5 C5             2.3228     1.5016    -0.0130 C.2     
   6 N6             1.1082     2.0844     0.0027 N.am    
   7 S7             0.9036    -2.3626    -0.0187 S.3     
   8 C8            -1.0724    -0.8452     0.0083 C.2     
   9 C9            -0.8584    -2.1683    -0.0005 C.2     
  10 C10           -1.8701    -3.2326     0.0040 C.2     
  11 O11           -3.0529    -2.9475     0.0165 O.2     
  12 N12           -1.4886    -4.5252    -0.0058 N.am    
  13 C13           -2.4979    -5.5869    -0.0013 C.3     
  14 C14           -0.8549    -8.7990     1.1197 C.ar    
  15 C15           -1.4812    -7.5681     1.1707 C.ar    
  16 C16           -1.8144    -6.9299    -0.0142 C.ar    
  17 C17           -1.5041    -7.5569    -1.2113 C.ar    
  18 C18           -0.8775    -8.7885    -1.1838 C.ar    
  19 N19           -0.5750    -9.3660    -0.0375 N.ar    
  20 C20            1.0159     3.5465     0.0110 C.3     
  21 C21            0.9975     4.0406     1.4345 C.ar    
  22 C22            2.1839     4.3427     2.0767 C.ar    
  23 C23            2.1670     4.7959     3.3825 C.ar    
  24 C24            0.9639     4.9474     4.0461 C.ar    
  25 C25           -0.2225     4.6462     3.4036 C.ar    
  26 C26           -0.2059     4.1971     2.0964 C.ar    
  27 S27            0.9425     5.5240     5.7109 S.o2    
  28 O28           -0.2760     5.0640     6.2792 O.2     
  29 O29            2.2185     5.2198     6.2573 O.2     
  30 N30            0.8388     7.1758     5.6563 N.am    
  31 O31            3.3377     2.1787    -0.0193 O.2     
  32 O32           -1.0879     1.9319     0.0177 O.2     
  33 C33            3.7334    -0.5944    -0.0369 C.3     
  34 H34           -2.0780    -0.4515     0.0204 H       
  35 H35           -0.5456    -4.7524    -0.0158 H       
  36 H36           -3.1122    -5.5005     0.8949 H       
  37 H37           -3.1291    -5.4920    -0.8850 H       
  38 H38           -0.5881    -9.3006     2.0382 H       
  39 H39           -1.7082    -7.1091     2.1216 H       
  40 H40           -1.7493    -7.0891    -2.1533 H       
  41 H41           -0.6325    -9.2835    -2.1119 H       
  42 H42            1.8764     3.9678    -0.5088 H       
  43 H43            0.1000     3.8556    -0.4928 H       
  44 H44            3.1239     4.2243     1.5582 H       
  45 H45            3.0939     5.0312     3.8844 H       
  46 H46           -1.1625     4.7642     3.9222 H       
  47 H47           -1.1330     3.9653     1.5932 H       
  48 H48            0.8028     7.6315     4.8008 H       
  49 H49            0.8141     7.6877     6.4799 H       
  50 H50            4.0458    -0.7575    -1.0683 H       
  51 H51            4.4721     0.0243     0.4729 H       
  52 H52            3.6489    -1.5539     0.4733 H       
  53 H53            9.4721    12.6877    11.4799 H       
  54 Cl54           9.4721    14.0577    11.4799 Cl      
@<TRIPOS>BOND
   1    1    2 am
   2    1    6 am
   3    1   32 2
   4    2    3 1
   5    2    8 1
   6    3    4 2
   7    3    7 1
   8    4    5 1
   9    4   33 1
  10    5    6 am
  11    5   31 2
  12    6   20 1
  13    7    9 1
  14    8    9 2
  15    8   34 1
  16    9   10 1
  17   10   11 2
  18   10   12 am
  19   12   13 1
  20   12   35 1
  21   13   16 1
  22   13   36 1
  23   13   37 1
  24   14   15 ar
  25   14   19 ar
  26   14   38 1
  27   15   16 ar
  28   15   39 1
  29   16   17 ar
  30   17   18 ar
  31   17   40 1
  32   18   19 ar
  33   18   41 1
  34   20   21 1
  35   20   42 1
  36   20   43 1
  37   21   22 ar
  38   21   26 ar
  39   22   23 ar
  40   22   44 1
  41   23   24 ar
  42   23   45 1
  43   24   25 ar
  44   24   27 1
  45   25   26 ar
  46   25   46 1
  47   26   47 1
  48   27   28 2
  49   27   29 2
  50   27   30 am
  51   30   48 1
  52   30   49 1
  53   33   50 1
  54   33   51 1
  55   33   52 1
  56   53   54 1

#	End of record

