#	Name: ASD08151083
#	Creating user name:	WinNT
#	Creation time:	15. 06. 2019 21:17

#	Modifying user name:	WinNT
#	Modification time:	15. 06. 2019 21:17

#	Program:	/corina/corina34_cracker 3.40 0067  02.08.2006

@<TRIPOS>MOLECULE
ASD08151083
  34   36    0    0    0
SMALL
NO_CHARGES


@<TRIPOS>ATOM
   1 N1            -0.5920     1.7784    -0.8513 N.ar    
   2 N2            -0.7587     0.5234    -1.0711 N.ar    
   3 C3             0.2166    -0.3682    -0.9665 C.ar    
   4 C4             1.4793     0.0165    -0.6098 C.ar    
   5 C5             1.6963     1.3846    -0.3618 C.ar    
   6 C6             2.9550     1.8850     0.0102 C.ar    
   7 C7             3.1136     3.2218     0.2392 C.ar    
   8 C8             2.0462     4.1028     0.1105 C.ar    
   9 C9             0.7906     3.6491    -0.2539 C.ar    
  10 C10            0.5963     2.2692    -0.4976 C.ar    
  11 C11           -0.3383     4.5988    -0.3880 C.ar    
  12 C12           -0.3458     5.5358    -1.4208 C.ar    
  13 C13           -1.4021     6.4186    -1.5407 C.ar    
  14 C14           -2.4515     6.3731    -0.6367 C.ar    
  15 C15           -2.4474     5.4457     0.3891 C.ar    
  16 C16           -1.4003     4.5554     0.5148 C.ar    
  17 F17           -1.4116     7.3276    -2.5401 F       
  18 F18            4.0057     1.0460     0.1413 F       
  19 C19            2.2590     5.5716     0.3719 C.3     
  20 C20            1.9070     5.8869     1.8271 C.3     
  21 N21            3.6617     5.9137     0.1236 N.2     
  22 N22            3.9982     6.9844     0.1838 N.1     
  23 N23            4.3347     8.0552     0.2440 N.pl3   
  24 H24            0.0115    -1.4098    -1.1648 H       
  25 H25            2.2801    -0.7027    -0.5213 H       
  26 H26            4.0837     3.6006     0.5252 H       
  27 H27            0.4722     5.5715    -2.1252 H       
  28 H28           -3.2754     7.0646    -0.7334 H       
  29 H29           -3.2676     5.4153     1.0911 H       
  30 H30           -1.4012     3.8289     1.3140 H       
  31 H31            1.6199     6.1549    -0.2910 H       
  32 H32            1.9741     6.9622     1.9924 H       
  33 H33            0.8919     5.5497     2.0367 H       
  34 H34            2.6043     5.3734     2.4890 H       
@<TRIPOS>BOND
   1    1    2 ar
   2    1   10 ar
   3    2    3 ar
   4    3    4 ar
   5    3   24 1
   6    4    5 ar
   7    4   25 1
   8    5    6 ar
   9    5   10 ar
  10    6    7 ar
  11    6   18 1
  12    7    8 ar
  13    7   26 1
  14    8    9 ar
  15    8   19 1
  16    9   10 ar
  17    9   11 1
  18   11   12 ar
  19   11   16 ar
  20   12   13 ar
  21   12   27 1
  22   13   14 ar
  23   13   17 1
  24   14   15 ar
  25   14   28 1
  26   15   16 ar
  27   15   29 1
  28   16   30 1
  29   19   20 1
  30   19   21 1
  31   19   31 1
  32   20   32 1
  33   20   33 1
  34   20   34 1
  35   21   22 2
  36   22   23 2

#	End of record

