#	Name: ASD01915350
#	Creating user name:	WinNT
#	Creation time:	15. 06. 2019 20:05

#	Modifying user name:	WinNT
#	Modification time:	15. 06. 2019 20:05

#	Program:	/corina/corina34_cracker 3.40 0067  02.08.2006

@<TRIPOS>MOLECULE
ASD01915350
  39   42    0    0    0
SMALL
NO_CHARGES


@<TRIPOS>ATOM
   1 C1             0.0328     0.5528     0.0497 C.ar    
   2 C2             0.3713    -0.7853     0.2421 C.ar    
   3 N3            -0.5837    -1.6966     0.4547 N.ar    
   4 C4            -1.8589    -1.3832     0.4920 C.ar    
   5 C5            -2.2798    -0.0782     0.3106 C.ar    
   6 C6            -1.3373     0.9148     0.0908 C.ar    
   7 C7             1.2078     1.3913    -0.1659 C.2     
   8 C8             2.3648     0.7341    -0.1393 C.2     
   9 S9             2.1187    -0.9762     0.1531 S.3     
  10 C10            1.1197     2.8528    -0.3961 C.ar    
  11 C11            1.4360     3.7429     0.6295 C.ar    
  12 S12            3.9412     1.4867    -0.3695 S.o2    
  13 O13            3.8080     2.8356     0.0571 O.2     
  14 O14            4.8979     0.5895     0.1774 O.2     
  15 C15            4.2449     1.5412    -2.1042 C.ar    
  16 C16            3.9634     2.6904    -2.8192 C.ar    
  17 C17            4.7698     0.4366    -2.7488 C.ar    
  18 C18            5.0087     0.4788    -4.1095 C.ar    
  19 C19            4.7219     1.6267    -4.8266 C.ar    
  20 C20            4.2010     2.7335    -4.1801 C.ar    
  21 C21            1.3528     5.1025     0.4096 C.ar    
  22 C22            0.9557     5.5834    -0.8264 C.ar    
  23 C23            0.6406     4.7039    -1.8482 C.ar    
  24 C24            0.7259     3.3425    -1.6408 C.ar    
  25 Cl25           0.8521     7.2952    -1.0959 Cl      
  26 Cl26           5.0217     1.6806    -6.5356 Cl      
  27 N27           -1.7283     2.2360    -0.0951 N.pl3   
  28 H28           -2.5911    -2.1577     0.6669 H       
  29 H29           -3.3314     0.1655     0.3438 H       
  30 H30            1.7452     3.3688     1.5943 H       
  31 H31            3.5575     3.5545    -2.3144 H       
  32 H32            4.9937    -0.4594    -2.1889 H       
  33 H33            5.4194    -0.3839    -4.6128 H       
  34 H34            3.9766     3.6297    -4.7394 H       
  35 H35            1.5976     5.7929     1.2033 H       
  36 H36            0.3310     5.0843    -2.8105 H       
  37 H37            0.4802     2.6573    -2.4387 H       
  38 H38           -2.6691     2.4712    -0.0717 H       
  39 H39           -1.0604     2.9225    -0.2481 H       
@<TRIPOS>BOND
   1    1    2 ar
   2    1    7 1
   3    1    6 ar
   4    2    3 ar
   5    2    9 1
   6    3    4 ar
   7    4    5 ar
   8    4   28 1
   9    5    6 ar
  10    5   29 1
  11    6   27 1
  12    7    8 2
  13    7   10 1
  14    8    9 1
  15    8   12 1
  16   10   11 ar
  17   10   24 ar
  18   11   21 ar
  19   11   30 1
  20   12   13 2
  21   12   14 2
  22   12   15 1
  23   15   16 ar
  24   15   17 ar
  25   16   20 ar
  26   16   31 1
  27   17   18 ar
  28   17   32 1
  29   18   19 ar
  30   18   33 1
  31   19   20 ar
  32   19   26 1
  33   20   34 1
  34   21   22 ar
  35   21   35 1
  36   22   23 ar
  37   22   25 1
  38   23   24 ar
  39   23   36 1
  40   24   37 1
  41   27   38 1
  42   27   39 1

#	End of record

