#	Name: ASD01881231
#	Creating user name:	WinNT
#	Creation time:	15. 06. 2019 19:42

#	Modifying user name:	WinNT
#	Modification time:	15. 06. 2019 19:42

#	Program:	/corina/corina34_cracker 3.40 0067  02.08.2006

@<TRIPOS>MOLECULE
ASD01881231
  53   56    0    0    0
SMALL
NO_CHARGES


@<TRIPOS>ATOM
   1 N1             0.0644     1.3753    -0.6402 N.ar    
   2 C2             0.1101     0.0797    -0.8744 C.ar    
   3 N3             1.2166    -0.6178    -0.7138 N.ar    
   4 C4             2.3385    -0.0328    -0.3053 C.ar    
   5 C5             2.3322     1.3334    -0.0473 C.ar    
   6 C6             1.1448     2.0329    -0.2289 C.ar    
   7 C7             3.5806     2.0377     0.4180 C.3     
   8 O8             4.3151     2.5038    -0.7157 O.3     
   9 C9             5.4745     3.1647    -0.4694 C.ar    
  10 C10            6.2390     3.6455    -1.5285 C.ar    
  11 C11            7.4113     4.3142    -1.2792 C.ar    
  12 C12            7.8450     4.5171     0.0354 C.ar    
  13 C13            7.0732     4.0321     1.0967 C.ar    
  14 C14            5.8938     3.3656     0.8396 C.ar    
  15 C15            8.4491     4.9475    -2.1721 C.3     
  16 N16            9.4711     5.5062    -1.2795 N.am    
  17 C17            9.1182     5.2554    -0.0072 C.2     
  18 O18            9.7591     5.5909     0.9701 O.2     
  19 C19           -1.1385    -0.6248    -1.3387 C.3     
  20 Cl20           7.5963     4.2742     2.7342 Cl      
  21 O21            1.0889     3.3660     0.0093 O.3     
  22 C22           -0.1201     3.9801    -0.0804 C.ar    
  23 C23           -1.0510     3.8339     0.9379 C.ar    
  24 C24           -2.2793     4.4591     0.8443 C.ar    
  25 C25           -2.5813     5.2300    -0.2631 C.ar    
  26 C26           -1.6556     5.3769    -1.2796 C.ar    
  27 C27           -0.4235     4.7588    -1.1879 C.ar    
  28 C28           10.3748     7.7167    -1.8074 C.3     
  29 C29           10.6773     6.2203    -1.7053 C.3     
  30 O30            3.4719    -0.7580    -0.1424 O.3     
  31 C31            3.3944    -2.1559    -0.4282 C.3     
  32 H32            3.3069     2.8848     1.0469 H       
  33 H33            4.1970     1.3444     0.9903 H       
  34 H34            5.9102     3.4920    -2.5457 H       
  35 H35            5.2977     2.9915     1.6588 H       
  36 H36            8.8921     4.1947    -2.8241 H       
  37 H37            7.9974     5.7409    -2.7675 H       
  38 H38           -1.1810    -0.6089    -2.4278 H       
  39 H39           -1.1236    -1.6577    -0.9907 H       
  40 H40           -2.0140    -0.1175    -0.9335 H       
  41 H41           -0.8157     3.2316     1.8030 H       
  42 H42           -3.0044     4.3454     1.6366 H       
  43 H43           -3.5422     5.7180    -0.3344 H       
  44 H44           -1.8941     5.9793    -2.1437 H       
  45 H45            0.2994     4.8741    -1.9820 H       
  46 H46            9.5808     7.8779    -2.5364 H       
  47 H47           10.0559     8.0901    -0.8342 H       
  48 H48           11.2723     8.2480    -2.1241 H       
  49 H49           11.4714     6.0591    -0.9762 H       
  50 H50           10.9962     5.8469    -2.6784 H       
  51 H51            3.1026    -2.2984    -1.4687 H       
  52 H52            4.3676    -2.6162    -0.2575 H       
  53 H53            2.6539    -2.6195     0.2235 H       
@<TRIPOS>BOND
   1    1    2 ar
   2    1    6 ar
   3    2    3 ar
   4    2   19 1
   5    3    4 ar
   6    4    5 ar
   7    4   30 1
   8    5    6 ar
   9    5    7 1
  10    6   21 1
  11    7    8 1
  12    7   32 1
  13    7   33 1
  14    8    9 1
  15    9   10 ar
  16    9   14 ar
  17   10   11 ar
  18   10   34 1
  19   11   12 ar
  20   11   15 1
  21   12   13 ar
  22   12   17 1
  23   13   14 ar
  24   13   20 1
  25   14   35 1
  26   15   16 1
  27   15   36 1
  28   15   37 1
  29   16   17 am
  30   16   29 1
  31   17   18 2
  32   19   38 1
  33   19   39 1
  34   19   40 1
  35   21   22 1
  36   22   23 ar
  37   22   27 ar
  38   23   24 ar
  39   23   41 1
  40   24   25 ar
  41   24   42 1
  42   25   26 ar
  43   25   43 1
  44   26   27 ar
  45   26   44 1
  46   27   45 1
  47   28   29 1
  48   28   46 1
  49   28   47 1
  50   28   48 1
  51   29   49 1
  52   29   50 1
  53   30   31 1
  54   31   51 1
  55   31   52 1
  56   31   53 1

#	End of record

