#	Name: ASD01940598
#	Creating user name:	WinNT
#	Creation time:	15. 06. 2019 20:12

#	Modifying user name:	WinNT
#	Modification time:	15. 06. 2019 20:12

#	Program:	/corina/corina34_cracker 3.40 0067  02.08.2006

@<TRIPOS>MOLECULE
ASD01940598
  49   52    0    0    0
SMALL
NO_CHARGES


@<TRIPOS>ATOM
   1 C1            -0.0847     2.4417    -0.5665 C.ar    
   2 C2            -0.9558     2.0954    -1.5904 C.ar    
   3 C3            -0.8070     2.6649    -2.8490 C.ar    
   4 C4             0.2069     3.5742    -3.0812 C.ar    
   5 C5             1.0749     3.9201    -2.0634 C.ar    
   6 C6             0.9309     3.3547    -0.8035 C.ar    
   7 N7            -1.9802     1.1755    -1.3559 N.pl3   
   8 O8             1.7850     3.6963     0.1965 O.3     
   9 C9             2.8161     4.5313    -0.1018 C.ar    
  10 C10            4.0529     4.0097    -0.4522 C.ar    
  11 C11            5.1035     4.8580    -0.7562 C.ar    
  12 C12            4.9251     6.2301    -0.7126 C.ar    
  13 C13            3.6907     6.7600    -0.3634 C.ar    
  14 C14            2.6301     5.9087    -0.0616 C.ar    
  15 N15            3.5104     8.1477    -0.3193 N.pl3   
  16 C16            4.4883     8.9971    -0.8470 C.ar    
  17 C17            5.2185     8.6092    -1.9625 C.ar    
  18 C18            6.1838     9.4500    -2.4815 C.ar    
  19 C19            6.4246    10.6778    -1.8915 C.ar    
  20 C20            5.7000    11.0686    -0.7797 C.ar    
  21 C21            4.7276    10.2347    -0.2589 C.ar    
  22 F22            4.0157    10.6187     0.8232 F       
  23 I23            7.8904    11.9482    -2.6830 I       
  24 N24            1.3781     6.4401     0.2874 N.am    
  25 S25            0.7174     6.0996     1.7672 S.o2    
  26 F26            6.3065     4.3456    -1.0961 F       
  27 O27           -0.5130     6.8105     1.7737 O.2     
  28 O28            0.7443     4.6809     1.8449 O.2     
  29 C29            1.8776     6.8244     2.9586 C.3     
  30 C30            1.5243     6.7174     4.4434 C.3     
  31 C31            2.6538     5.8644     3.8624 C.3     
  32 H32           -0.2008     2.0040     0.4139 H       
  33 H33           -1.4841     2.3963    -3.6463 H       
  34 H34            0.3215     4.0153    -4.0604 H       
  35 H35            1.8667     4.6310    -2.2482 H       
  36 H36           -2.0833     0.7780    -0.4770 H       
  37 H37           -2.5885     0.9339    -2.0717 H       
  38 H38            4.1964     2.9398    -0.4875 H       
  39 H39            5.7473     6.8888    -0.9501 H       
  40 H40            2.7072     8.5201     0.0771 H       
  41 H41            5.0322     7.6506    -2.4238 H       
  42 H42            6.7517     9.1482    -3.3491 H       
  43 H43            5.8908    12.0275    -0.3209 H       
  44 H44            0.9002     7.0067    -0.3383 H       
  45 H45            2.3889     7.7280     2.6267 H       
  46 H46            1.8036     7.5505     5.0884 H       
  47 H47            0.5948     6.2115     4.7044 H       
  48 H48            2.4673     4.7973     3.7412 H       
  49 H49            3.6761     6.1363     4.1252 H       
@<TRIPOS>BOND
   1    1    2 ar
   2    1    6 ar
   3    1   32 1
   4    2    3 ar
   5    2    7 1
   6    3    4 ar
   7    3   33 1
   8    4    5 ar
   9    4   34 1
  10    5    6 ar
  11    5   35 1
  12    6    8 1
  13    7   36 1
  14    7   37 1
  15    8    9 1
  16    9   10 ar
  17    9   14 ar
  18   10   11 ar
  19   10   38 1
  20   11   12 ar
  21   11   26 1
  22   12   13 ar
  23   12   39 1
  24   13   14 ar
  25   13   15 1
  26   14   24 1
  27   15   16 1
  28   15   40 1
  29   16   17 ar
  30   16   21 ar
  31   17   18 ar
  32   17   41 1
  33   18   19 ar
  34   18   42 1
  35   19   20 ar
  36   19   23 1
  37   20   21 ar
  38   20   43 1
  39   21   22 1
  40   24   25 am
  41   24   44 1
  42   25   27 2
  43   25   28 2
  44   25   29 1
  45   29   30 1
  46   29   31 1
  47   29   45 1
  48   30   31 1
  49   30   46 1
  50   30   47 1
  51   31   48 1
  52   31   49 1

#	End of record

