#	Name: ASD01150653
#	Creating user name:	WinNT
#	Creation time:	15. 06. 2019 19:04

#	Modifying user name:	WinNT
#	Modification time:	15. 06. 2019 19:04

#	Program:	/corina/corina34_cracker 3.40 0067  02.08.2006

@<TRIPOS>MOLECULE
ASD01150653
  56   58    0    0    0
SMALL
NO_CHARGES


@<TRIPOS>ATOM
   1 C1             0.4933     1.3919    -0.9465 C.ar    
   2 C2             0.4639     0.0109    -0.9224 C.ar    
   3 C3             1.9479     0.0102     0.9677 C.ar    
   4 C4             1.9789     1.3966     0.9446 C.ar    
   5 C5             1.2509     2.0887    -0.0132 C.ar    
   6 N6             1.2801     3.4880    -0.0392 N.am    
   7 C7             0.1264     4.1736    -0.1217 C.2     
   8 N8             0.1177     5.5194    -0.1489 N.am    
   9 C9             1.2790     6.2039    -0.0930 C.2     
  10 C10            2.5443     5.4601    -0.0027 C.2     
  11 N11            2.5098     4.1538     0.0269 N.2     
  12 O12            1.2793     7.4207    -0.1175 O.2     
  13 C13           -1.1538     6.2413    -0.2397 C.3     
  14 O14           -0.9269     3.5677    -0.1731 O.2     
  15 C15           -1.6751     6.5169     1.1472 C.ar    
  16 O16            3.7301     6.1204     0.0551 O.3     
  17 C17            4.9130     5.3233     0.1416 C.3     
  18 C18            1.1883    -0.6824     0.0308 C.ar    
  19 N19            2.6816    -0.6915     1.9324 N.am    
  20 C20            2.9446    -0.1217     3.1251 C.2     
  21 O21            2.6215     1.0289     3.3320 O.2     
  22 C22            3.6402    -0.9142     4.2018 C.3     
  23 C23           -1.3234     7.6853     1.7975 C.ar    
  24 C24           -1.8000     7.9424     3.0702 C.ar    
  25 C25           -2.6291     7.0324     3.6956 C.ar    
  26 C26           -2.9845     5.8574     3.0450 C.ar    
  27 C27           -2.5084     5.6048     1.7649 C.ar    
  28 F28            1.1574    -2.0329     0.0519 F       
  29 N29           -3.8226     4.9345     3.6748 N.3     
  30 C30           -5.0510     4.7229     2.8975 C.3     
  31 C31           -3.1236     3.6642     3.9109 C.3     
  32 C32           -3.1475     7.3131     5.0825 C.3     
  33 F33           -2.6554     8.5462     5.5235 F       
  34 F34           -4.5458     7.3505     5.0590 F       
  35 F35           -2.7225     6.3033     5.9525 F       
  36 H36           -0.0696     1.9304    -1.6945 H       
  37 H37           -0.1260    -0.5284    -1.6487 H       
  38 H38            2.5683     1.9367     1.6708 H       
  39 H39           -0.9995     7.1844    -0.7639 H       
  40 H40           -1.8771     5.6360    -0.7861 H       
  41 H41            4.8740     4.7118     1.0432 H       
  42 H42            4.9802     4.6767    -0.7333 H       
  43 H43            5.7871     5.9733     0.1810 H       
  44 H44            3.0005    -1.5876     1.7421 H       
  45 H45            3.8502    -1.9190     3.8351 H       
  46 H46            4.5754    -0.4220     4.4685 H       
  47 H47            2.9981    -0.9749     5.0805 H       
  48 H48           -0.6748     8.3986     1.3108 H       
  49 H49           -1.5230     8.8558     3.5756 H       
  50 H50           -2.7827     4.6924     1.2563 H       
  51 H51           -4.7943     4.3436     1.9084 H       
  52 H52           -5.6855     4.0000     3.4104 H       
  53 H53           -5.5847     5.6679     2.7971 H       
  54 H54           -2.2562     3.8396     4.5472 H       
  55 H55           -3.7990     2.9638     4.4023 H       
  56 H56           -2.7971     3.2466     2.9585 H       
@<TRIPOS>BOND
   1    1    2 ar
   2    1    5 ar
   3    1   36 1
   4    2   18 ar
   5    2   37 1
   6    3    4 ar
   7    3   19 1
   8    3   18 ar
   9    4    5 ar
  10    4   38 1
  11    5    6 1
  12    6    7 am
  13    6   11 1
  14    7    8 am
  15    7   14 2
  16    8    9 am
  17    8   13 1
  18    9   10 1
  19    9   12 2
  20   10   11 2
  21   10   16 1
  22   13   15 1
  23   13   39 1
  24   13   40 1
  25   15   23 ar
  26   15   27 ar
  27   16   17 1
  28   17   41 1
  29   17   42 1
  30   17   43 1
  31   18   28 1
  32   19   20 am
  33   19   44 1
  34   20   21 2
  35   20   22 1
  36   22   45 1
  37   22   46 1
  38   22   47 1
  39   23   24 ar
  40   23   48 1
  41   24   25 ar
  42   24   49 1
  43   25   26 ar
  44   25   32 1
  45   26   27 ar
  46   26   29 1
  47   27   50 1
  48   29   30 1
  49   29   31 1
  50   30   51 1
  51   30   52 1
  52   30   53 1
  53   31   54 1
  54   31   55 1
  55   31   56 1
  56   32   33 1
  57   32   34 1
  58   32   35 1

#	End of record

