#	Name: ASD01880065
#	Creating user name:	WinNT
#	Creation time:	15. 06. 2019 19:39

#	Modifying user name:	WinNT
#	Modification time:	15. 06. 2019 19:39

#	Program:	/corina/corina34_cracker 3.40 0067  02.08.2006

@<TRIPOS>MOLECULE
ASD01880065
  49   51    0    0    0
SMALL
NO_CHARGES


@<TRIPOS>ATOM
   1 C1            -0.0167     1.3776     0.0096 C.ar    
   2 C2             0.0021    -0.0041     0.0020 C.ar    
   3 N3             1.1443    -0.6632    -0.0120 N.ar    
   4 C4             2.3054    -0.0383    -0.0197 C.ar    
   5 C5             2.3651     1.3426    -0.0133 C.ar    
   6 C6             1.1850     2.0698     0.0019 C.ar    
   7 C7             3.6964     2.0488    -0.0217 C.3     
   8 N8             4.1154     2.2846    -1.4056 N.am    
   9 C9             3.6624     3.4151    -2.0894 C.ar    
  10 S10            5.1261     1.2108    -2.1591 S.o2    
  11 C11            4.0114     0.0118    -2.9404 C.3     
  12 O12            5.7918     1.9885    -3.1445 O.2     
  13 O13            5.8466     0.6025    -1.0960 O.2     
  14 C14            3.2752     4.5469    -1.3836 C.ar    
  15 C15            2.8281     5.6633    -2.0630 C.ar    
  16 C16            2.7655     5.6548    -3.4442 C.ar    
  17 C17            3.1503     4.5295    -4.1502 C.ar    
  18 C18            3.6036     3.4120    -3.4775 C.ar    
  19 C19            2.4078     6.8917    -1.2980 C.3     
  20 O20            3.5365     7.7489    -1.1159 O.3     
  21 C21            3.3275     8.9091    -0.4398 C.ar    
  22 C22            4.3792     9.7884    -0.2267 C.ar    
  23 C23            4.1641    10.9671     0.4608 C.ar    
  24 C24            2.9019    11.2709     0.9365 C.ar    
  25 C25            1.8521    10.3961     0.7258 C.ar    
  26 C26            2.0607     9.2189     0.0335 C.ar    
  27 C27            4.8281    -1.1555    -3.4983 C.3     
  28 H28           -0.9553     1.9117     0.0170 H       
  29 H29           -0.9295    -0.5505     0.0080 H       
  30 H30            3.2203    -0.6121    -0.0308 H       
  31 H31            1.2010     3.1496     0.0072 H       
  32 H32            3.6050     3.0027     0.4978 H       
  33 H33            4.4390     1.4303     0.4824 H       
  34 H34            3.3028    -0.3611    -2.2008 H       
  35 H35            3.4683     0.4960    -3.7521 H       
  36 H36            3.3232     4.5538    -0.3047 H       
  37 H37            2.4149     6.5289    -3.9730 H       
  38 H38            3.0998     4.5261    -5.2290 H       
  39 H39            3.9043     2.5337    -4.0294 H       
  40 H40            1.6359     7.4212    -1.8566 H       
  41 H41            2.0146     6.5970    -0.3250 H       
  42 H42            5.3654     9.5514    -0.5978 H       
  43 H43            4.9827    11.6517     0.6272 H       
  44 H44            2.7358    12.1929     1.4738 H       
  45 H45            0.8673    10.6353     1.0990 H       
  46 H46            1.2404     8.5359    -0.1308 H       
  47 H47            5.3711    -1.6397    -2.6866 H       
  48 H48            4.1583    -1.8760    -3.9678 H       
  49 H49            5.5366    -0.7826    -4.2378 H       
@<TRIPOS>BOND
   1    1    2 ar
   2    1    6 ar
   3    1   28 1
   4    2    3 ar
   5    2   29 1
   6    3    4 ar
   7    4    5 ar
   8    4   30 1
   9    5    6 ar
  10    5    7 1
  11    6   31 1
  12    7    8 1
  13    7   32 1
  14    7   33 1
  15    8    9 1
  16    8   10 am
  17    9   14 ar
  18    9   18 ar
  19   10   11 1
  20   10   12 2
  21   10   13 2
  22   11   27 1
  23   11   34 1
  24   11   35 1
  25   14   15 ar
  26   14   36 1
  27   15   16 ar
  28   15   19 1
  29   16   17 ar
  30   16   37 1
  31   17   18 ar
  32   17   38 1
  33   18   39 1
  34   19   20 1
  35   19   40 1
  36   19   41 1
  37   20   21 1
  38   21   22 ar
  39   21   26 ar
  40   22   23 ar
  41   22   42 1
  42   23   24 ar
  43   23   43 1
  44   24   25 ar
  45   24   44 1
  46   25   26 ar
  47   25   45 1
  48   26   46 1
  49   27   47 1
  50   27   48 1
  51   27   49 1

#	End of record

