#	Name: ASD01411068
#	Creating user name:	WinNT
#	Creation time:	15. 06. 2019 19:19

#	Modifying user name:	WinNT
#	Modification time:	15. 06. 2019 19:19

#	Program:	/corina/corina34_cracker 3.40 0067  02.08.2006

@<TRIPOS>MOLECULE
ASD01411068
  69   74    0    0    0
SMALL
NO_CHARGES


@<TRIPOS>ATOM
   1 C1             1.2750     1.4109    -1.1987 C.ar    
   2 C2             1.2891     0.0159    -1.2019 C.ar    
   3 C3             1.1763     2.0961     0.0021 C.ar    
   4 C4             1.2037    -0.6814     0.0051 C.ar    
   5 C5             1.0923     1.3944     1.1979 C.ar    
   6 N6             1.1618     3.4976     0.0097 N.am    
   7 C7             1.1058     0.0107     1.1961 C.ar    
   8 C8            -0.0187     4.1478    -0.0725 C.2     
   9 C9             2.3200     4.1665     0.1041 C.2     
  10 Cl10           0.9997    -0.8578     2.6955 Cl      
  11 C11           -0.0065     5.6185    -0.0564 C.ar    
  12 O12           -1.0650     3.5333    -0.1580 O.2     
  13 N13            2.3922     5.5113     0.1173 N.am    
  14 O14            3.3527     3.5297     0.1818 O.2     
  15 C15            1.2363     6.2758     0.0413 C.ar    
  16 C16           -1.1874     6.3566    -0.1356 C.ar    
  17 C17            1.2705     7.6579     0.0642 C.ar    
  18 C18           -1.1380     7.7216    -0.1159 C.ar    
  19 C19            0.0868     8.3806    -0.0147 C.ar    
  20 N20            0.1237     9.7707     0.0056 N.pl3   
  21 C21           -1.1216    10.5378    -0.0792 C.3     
  22 C22            3.7057     6.1562     0.2086 C.3     
  23 C23            2.5877     8.3831     0.1748 C.3     
  24 C24            3.5756     7.4925     0.9422 C.3     
  25 C25           -0.9197    11.9109     0.5648 C.3     
  26 C26           -2.2202    12.7120     0.4762 C.3     
  27 C27           -2.6104    12.8899    -0.9925 C.3     
  28 C28           -2.8124    11.5169    -1.6365 C.3     
  29 C29           -1.5119    10.7158    -1.5479 C.3     
  30 C30            1.3936    -0.7214    -2.4779 C.2     
  31 O31            1.4673    -0.1129    -3.5266 O.2     
  32 O32            1.4070    -2.0684    -2.4784 O.3     
  33 C33           -4.2304    13.9719    -2.5268 C.ar    
  34 C34           -5.0010    13.0809    -3.2501 C.ar    
  35 C35           -5.2988    13.3413    -4.5746 C.ar    
  36 C36           -4.8263    14.4930    -5.1758 C.ar    
  37 C37           -4.0565    15.3844    -4.4522 C.ar    
  38 C38           -3.7575    15.1233    -3.1281 C.ar    
  39 C39           -3.9109    13.6910    -1.0811 C.3     
  40 H40            1.3452     1.9554    -2.1287 H       
  41 H41            1.2140    -1.7613     0.0071 H       
  42 H42            1.0162     1.9306     2.1323 H       
  43 H43           -2.1382     5.8503    -0.2126 H       
  44 H44           -2.0522     8.2933    -0.1785 H       
  45 H45            0.9738    10.2324     0.0760 H       
  46 H46           -1.9139    10.0035     0.4451 H       
  47 H47            4.3907     5.5079     0.7550 H       
  48 H48            4.0948     6.3298    -0.7947 H       
  49 H49            2.9730     8.5949    -0.8226 H       
  50 H50            2.4463     9.3164     0.7198 H       
  51 H51            3.2070     7.3268     1.9545 H       
  52 H52            4.5502     7.9789     0.9821 H       
  53 H53           -0.6416    11.7841     1.6111 H       
  54 H54           -0.1274    12.4451     0.0405 H       
  55 H55           -3.0125    12.1777     1.0005 H       
  56 H56           -2.0763    13.6902     0.9350 H       
  57 H57           -1.8181    13.4242    -1.5168 H       
  58 H58           -3.6047    10.9826    -1.1122 H       
  59 H59           -3.0904    11.6437    -2.6828 H       
  60 H60           -0.7196    11.2500    -2.0722 H       
  61 H61           -1.6557     9.7376    -2.0067 H       
  62 H62            1.4768    -2.5064    -3.3377 H       
  63 H63           -5.3701    12.1811    -2.7805 H       
  64 H64           -5.9003    12.6448    -5.1399 H       
  65 H65           -5.0584    14.6961    -6.2108 H       
  66 H66           -3.6868    16.2838    -4.9221 H       
  67 H67           -3.1554    15.8194    -2.5630 H       
  68 H68           -4.7226    13.1167    -0.6346 H       
  69 H69           -3.7947    14.6330    -0.5451 H       
@<TRIPOS>BOND
   1    1    2 ar
   2    1    3 ar
   3    1   40 1
   4    2   30 1
   5    2    4 ar
   6    3    5 ar
   7    3    6 1
   8    4    7 ar
   9    4   41 1
  10    5    7 ar
  11    5   42 1
  12    6    9 am
  13    6    8 am
  14    7   10 1
  15    8   11 1
  16    8   12 2
  17    9   13 am
  18    9   14 2
  19   11   15 ar
  20   11   16 ar
  21   13   22 1
  22   13   15 1
  23   15   17 ar
  24   16   18 ar
  25   16   43 1
  26   17   23 1
  27   17   19 ar
  28   18   19 ar
  29   18   44 1
  30   19   20 1
  31   20   21 1
  32   20   45 1
  33   21   25 1
  34   21   29 1
  35   21   46 1
  36   22   24 1
  37   22   47 1
  38   22   48 1
  39   23   24 1
  40   23   49 1
  41   23   50 1
  42   24   51 1
  43   24   52 1
  44   25   26 1
  45   25   53 1
  46   25   54 1
  47   26   27 1
  48   26   55 1
  49   26   56 1
  50   27   28 1
  51   27   39 1
  52   27   57 1
  53   28   29 1
  54   28   58 1
  55   28   59 1
  56   29   60 1
  57   29   61 1
  58   30   31 2
  59   30   32 1
  60   32   62 1
  61   33   34 ar
  62   33   38 ar
  63   33   39 1
  64   34   35 ar
  65   34   63 1
  66   35   36 ar
  67   35   64 1
  68   36   37 ar
  69   36   65 1
  70   37   38 ar
  71   37   66 1
  72   38   67 1
  73   39   68 1
  74   39   69 1

#	End of record

