#	Name: ASD03240191
#	Creating user name:	WinNT
#	Creation time:	15. 06. 2019 20:34

#	Modifying user name:	WinNT
#	Modification time:	15. 06. 2019 20:34

#	Program:	/corina/corina34_cracker 3.40 0067  02.08.2006

@<TRIPOS>MOLECULE
ASD03240191
  58   61    0    0    0
SMALL
NO_CHARGES


@<TRIPOS>ATOM
   1 C1             3.3748     4.6482    -0.4024 C.3     
   2 C2             2.1950     4.4312     0.5599 C.3     
   3 C3             1.2804     4.4811    -0.6753 C.3     
   4 C4             2.4959     4.0196    -1.4966 C.3     
   5 C5             2.6156     4.7035    -2.8341 C.2     
   6 C6             1.7334     4.3646    -3.8784 C.2     
   7 N7             1.8230     4.9501    -5.0502 N.2     
   8 N8             2.7974     5.9224    -5.2834 N.pl3   
   9 C9             3.6721     6.2748    -4.2863 C.2     
  10 C10            3.5715     5.6506    -3.0290 C.2     
  11 C11            3.1307     6.6864    -6.3623 C.2     
  12 N12            4.1507     7.4455    -6.0061 N.2     
  13 N13            4.4732     7.2064    -4.7833 N.2     
  14 C14            2.4725     6.6682    -7.6852 C.ar    
  15 C15            2.6979     7.7031    -8.5948 C.ar    
  16 C16            2.0806     7.6797    -9.8282 C.ar    
  17 C17            1.2393     6.6340   -10.1646 C.ar    
  18 C18            1.0115     5.6052    -9.2678 C.ar    
  19 C19            1.6270     5.6133    -8.0332 C.ar    
  20 N20            0.7561     3.3981    -3.6660 N.pl3   
  21 C21           -0.2367     3.1192    -4.7067 C.3     
  22 C22           -1.1884     2.0232    -4.2230 C.3     
  23 C23           -0.3919     0.7516    -3.9241 C.3     
  24 C24           -1.8998     2.4901    -2.9515 C.3     
  25 C25           -2.2252     1.7320    -5.3098 C.3     
  26 N26           -1.5451     1.2450    -6.5174 N.3     
  27 C27           -1.3325    -0.2071    -6.4525 C.3     
  28 C28           -2.2920     1.6141    -7.7273 C.3     
  29 H29            3.6069     5.6986    -0.5787 H       
  30 H30            4.2550     4.0549    -0.1549 H       
  31 H31            2.2081     3.4599     1.0545 H       
  32 H32            2.0388     5.2581     1.2526 H       
  33 H33            0.4698     3.7529    -0.6481 H       
  34 H34            0.9399     5.4857    -0.9262 H       
  35 H35            2.5911     2.9359    -1.5641 H       
  36 H36            4.2506     5.9143    -2.2316 H       
  37 H37            3.3538     8.5203    -8.3332 H       
  38 H38            2.2541     8.4797   -10.5328 H       
  39 H39            0.7580     6.6209   -11.1313 H       
  40 H40            0.3537     4.7919    -9.5366 H       
  41 H41            1.4483     4.8096    -7.3342 H       
  42 H42            0.7317     2.9087    -2.8289 H       
  43 H43           -0.8041     4.0252    -4.9196 H       
  44 H44            0.2702     2.7866    -5.6125 H       
  45 H45            0.2433     0.9168    -3.0538 H       
  46 H46           -1.0801    -0.0690    -3.7211 H       
  47 H47            0.2287     0.5009    -4.7844 H       
  48 H48           -2.5340     3.3458    -3.1833 H       
  49 H49           -2.5132     1.6788    -2.5596 H       
  50 H50           -1.1590     2.7784    -2.2057 H       
  51 H51           -2.9213     0.9726    -4.9537 H       
  52 H52           -2.7722     2.6451    -5.5442 H       
  53 H53           -2.2955    -0.7170    -6.4812 H       
  54 H54           -0.7281    -0.5242    -7.3024 H       
  55 H55           -0.8162    -0.4577    -5.5258 H       
  56 H56           -2.3746     2.6994    -7.7864 H       
  57 H57           -1.7665     1.2413    -8.6066 H       
  58 H58           -3.2890     1.1755    -7.6868 H       
@<TRIPOS>BOND
   1    1    2 1
   2    1    4 1
   3    1   29 1
   4    1   30 1
   5    2    3 1
   6    2   31 1
   7    2   32 1
   8    3    4 1
   9    3   33 1
  10    3   34 1
  11    4    5 1
  12    4   35 1
  13    5    6 1
  14    5   10 2
  15    6    7 2
  16    6   20 1
  17    7    8 1
  18    8    9 1
  19    8   11 1
  20    9   10 1
  21    9   13 2
  22   10   36 1
  23   11   12 2
  24   11   14 1
  25   12   13 1
  26   14   15 ar
  27   14   19 ar
  28   15   16 ar
  29   15   37 1
  30   16   17 ar
  31   16   38 1
  32   17   18 ar
  33   17   39 1
  34   18   19 ar
  35   18   40 1
  36   19   41 1
  37   20   21 1
  38   20   42 1
  39   21   22 1
  40   21   43 1
  41   21   44 1
  42   22   23 1
  43   22   24 1
  44   22   25 1
  45   23   45 1
  46   23   46 1
  47   23   47 1
  48   24   48 1
  49   24   49 1
  50   24   50 1
  51   25   26 1
  52   25   51 1
  53   25   52 1
  54   26   27 1
  55   26   28 1
  56   27   53 1
  57   27   54 1
  58   27   55 1
  59   28   56 1
  60   28   57 1
  61   28   58 1

#	End of record

