#	Name: ASD08150427
#	Creating user name:	WinNT
#	Creation time:	15. 06. 2019 21:16

#	Modifying user name:	WinNT
#	Modification time:	15. 06. 2019 21:16

#	Program:	/corina/corina34_cracker 3.40 0067  02.08.2006

@<TRIPOS>MOLECULE
ASD08150427
  42   46    0    0    0
SMALL
NO_CHARGES


@<TRIPOS>ATOM
   1 N1             0.8871     2.9154    -1.6803 N.am    
   2 C2             1.3189     2.2921    -2.7939 C.2     
   3 C3             2.5286     1.5683    -2.7952 C.2     
   4 C4             3.2791     1.4901    -1.6669 C.2     
   5 C5             2.8282     2.1451    -0.4936 C.ar    
   6 C6             3.5685     2.0960     0.7030 C.ar    
   7 N7             3.1503     2.7015     1.7837 N.ar    
   8 C8             2.0041     3.3980     1.8180 C.ar    
   9 C9             1.1949     3.5010     0.6598 C.ar    
  10 C10            1.6191     2.8569    -0.5261 C.ar    
  11 C11            0.0017     4.2286     0.7064 C.ar    
  12 C12           -0.3770     4.8428     1.8889 C.ar    
  13 C13            0.4289     4.7366     3.0309 C.ar    
  14 C14            1.5923     4.0329     3.0013 C.ar    
  15 O15            0.6543     2.3545    -3.8141 O.2     
  16 C16           -1.6411     5.6171     1.9468 C.ar    
  17 C17           -0.3155     3.6325    -1.7062 C.ar    
  18 C18           -0.3089     4.9905    -1.9955 C.ar    
  19 C19           -1.4970     5.6962    -2.0204 C.ar    
  20 C20           -2.6937     5.0489    -1.7568 C.ar    
  21 C21           -2.7013     3.6947    -1.4677 C.ar    
  22 C22           -1.5168     2.9850    -1.4480 C.ar    
  23 Cl23          -1.4902     7.3943    -2.3814 Cl      
  24 C24           -2.7651     5.1912     1.2421 C.ar    
  25 F25           -3.8543     5.7400    -1.7815 F       
  26 N26           -3.8883     5.8777     1.2931 N.ar    
  27 C27           -3.9967     6.9834     2.0039 C.ar    
  28 C28           -2.9259     7.4717     2.7307 C.ar    
  29 C29           -1.7257     6.7827     2.7138 C.ar    
  30 H30            2.8592     1.0742    -3.6968 H       
  31 H31            4.2064     0.9365    -1.6631 H       
  32 H32            4.4987     1.5478     0.7287 H       
  33 H33           -0.6197     4.3114    -0.1730 H       
  34 H34            0.1221     5.2206     3.9464 H       
  35 H35            2.2010     3.9614     3.8906 H       
  36 H36            0.6238     5.4949    -2.2005 H       
  37 H37           -3.6348     3.1921    -1.2622 H       
  38 H38           -1.5236     1.9289    -1.2224 H       
  39 H39           -2.7149     4.2904     0.6484 H       
  40 H40           -4.9361     7.5160     2.0184 H       
  41 H41           -3.0266     8.3786     3.3084 H       
  42 H42           -0.8735     7.1412     3.2720 H       
@<TRIPOS>BOND
   1    1    2 am
   2    1   10 1
   3    1   17 1
   4    2    3 1
   5    2   15 2
   6    3    4 2
   7    3   30 1
   8    4    5 1
   9    4   31 1
  10    5    6 ar
  11    5   10 ar
  12    6    7 ar
  13    6   32 1
  14    7    8 ar
  15    8    9 ar
  16    8   14 ar
  17    9   10 ar
  18    9   11 ar
  19   11   12 ar
  20   11   33 1
  21   12   13 ar
  22   12   16 1
  23   13   14 ar
  24   13   34 1
  25   14   35 1
  26   16   24 ar
  27   16   29 ar
  28   17   18 ar
  29   17   22 ar
  30   18   19 ar
  31   18   36 1
  32   19   20 ar
  33   19   23 1
  34   20   21 ar
  35   20   25 1
  36   21   22 ar
  37   21   37 1
  38   22   38 1
  39   24   26 ar
  40   24   39 1
  41   26   27 ar
  42   27   28 ar
  43   27   40 1
  44   28   29 ar
  45   28   41 1
  46   29   42 1

#	End of record

