#	Name: ASD03930214
#	Creating user name:	WinNT
#	Creation time:	15. 06. 2019 20:47

#	Modifying user name:	WinNT
#	Modification time:	15. 06. 2019 20:47

#	Program:	/corina/corina34_cracker 3.40 0067  02.08.2006

@<TRIPOS>MOLECULE
ASD03930214
  26   27    0    0    0
SMALL
NO_CHARGES


@<TRIPOS>ATOM
   1 C1             0.0046     1.5258     0.0237 C.3     
   2 C2             0.0021    -0.0041     0.0020 C.3     
   3 N3             0.6897    -0.4778    -1.2066 N.3     
   4 C4             2.0012     0.1422    -1.3379 C.3     
   5 N5             2.5809    -0.2122    -2.6511 N.am    
   6 S6             2.8769    -1.8434    -2.8625 S.o2    
   7 O7             2.7210    -2.1159    -4.2484 O.2     
   8 O8             4.0545    -2.1488    -2.1282 O.2     
   9 C9             1.5284    -2.6292    -2.0282 C.ar    
  10 C10            1.3893    -3.9990    -2.1062 C.ar    
  11 C11            0.3504    -4.6308    -1.4458 C.ar    
  12 I12            0.1342    -6.7110    -1.5673 I       
  13 C13           -0.5441    -3.8801    -0.7044 C.ar    
  14 C14           -0.4105    -2.5111    -0.6310 C.ar    
  15 C15            0.6291    -1.8608    -1.3034 C.ar    
  16 H16            1.0329     1.8874     0.0253 H       
  17 H17           -0.5116     1.9025    -0.8593 H       
  18 H18           -0.5056     1.8773     0.9205 H       
  19 H19            0.5183    -0.3808     0.8850 H       
  20 H20           -1.0262    -0.3657     0.0004 H       
  21 H21            1.9005     1.2250    -1.2650 H       
  22 H22            2.6546    -0.2172    -0.5430 H       
  23 H23            2.7736     0.4485    -3.3346 H       
  24 H24            2.0927    -4.5799    -2.6843 H       
  25 H25           -1.3517    -4.3699    -0.1808 H       
  26 H26           -1.1151    -1.9349    -0.0496 H       
@<TRIPOS>BOND
   1    1    2 1
   2    1   16 1
   3    1   17 1
   4    1   18 1
   5    2    3 1
   6    2   19 1
   7    2   20 1
   8    3   15 1
   9    3    4 1
  10    4    5 1
  11    4   21 1
  12    4   22 1
  13    5    6 am
  14    5   23 1
  15    6    7 2
  16    6    8 2
  17    6    9 1
  18    9   15 ar
  19    9   10 ar
  20   10   11 ar
  21   10   24 1
  22   11   12 1
  23   11   13 ar
  24   13   14 ar
  25   13   25 1
  26   14   15 ar
  27   14   26 1

#	End of record

