#	Name: ASD01816470
#	Creating user name:	WinNT
#	Creation time:	15. 06. 2019 19:35

#	Modifying user name:	WinNT
#	Modification time:	15. 06. 2019 19:35

#	Program:	/corina/corina34_cracker 3.40 0067  02.08.2006

@<TRIPOS>MOLECULE
ASD01816470
  51   56    0    0    0
SMALL
NO_CHARGES


@<TRIPOS>ATOM
   1 C1            -0.0755     1.3136     0.1742 C.ar    
   2 C2            -0.0315    -0.0709     0.1624 C.ar    
   3 C3             1.1772    -0.7359     0.0941 C.ar    
   4 C4             2.3671    -0.0150     0.0364 C.ar    
   5 C5             2.3180     1.3883     0.0481 C.ar    
   6 C6             1.0932     2.0465     0.1173 C.ar    
   7 N7             3.5827    -0.6753    -0.0313 N.pl3   
   8 C8             4.7606    -0.0339    -0.0885 C.2     
   9 C9             4.8370     1.3370    -0.0839 C.2     
  10 C10            3.5902     2.1326    -0.0138 C.2     
  11 C11            5.9140     2.3207    -0.1337 C.2     
  12 N12            5.3190     3.5325    -0.0953 N.am    
  13 N13            3.9310     3.3893    -0.0238 N.2     
  14 C14            5.9967     4.7580    -0.1225 C.ar    
  15 O15            7.1114     2.0939    -0.1973 O.2     
  16 C16            3.5832    -2.1402    -0.0404 C.3     
  17 C17            3.7104    -2.6513     1.3715 C.ar    
  18 C18            2.5857    -2.7663     2.1677 C.ar    
  19 C19            2.6992    -3.2340     3.4623 C.ar    
  20 C20            3.9441    -3.5893     3.9639 C.ar    
  21 C21            5.0715    -3.4732     3.1620 C.ar    
  22 C22            4.9509    -3.0098     1.8664 C.ar    
  23 N23            4.0626    -4.0638     5.2777 N.pl3   
  24 C24            5.2090    -4.4423     5.8868 C.2     
  25 C25            4.8973    -4.8346     7.1438 C.2     
  26 C26            3.5153    -4.6917     7.3094 C.2     
  27 N27            3.0151    -4.2243     6.1939 N.2     
  28 C28            6.3631     5.3236    -1.3359 C.ar    
  29 Br29           1.0305     3.9364     0.1323 Br      
  30 C30            7.0316     6.5326    -1.3596 C.ar    
  31 C31            7.3367     7.1798    -0.1767 C.ar    
  32 C32            6.9742     6.6203     1.0352 C.ar    
  33 C33            6.2992     5.4140     1.0664 C.ar    
  34 F34            5.9446     4.8674     2.2500 F       
  35 F35            1.2050    -2.0866     0.0838 F       
  36 H36           -1.0274     1.8215     0.2237 H       
  37 H37           -0.9510    -0.6357     0.2073 H       
  38 H38            5.6719    -0.6112    -0.1390 H       
  39 H39            2.6509    -2.5012    -0.4749 H       
  40 H40            4.4238    -2.4996    -0.6341 H       
  41 H41            1.6176    -2.4898     1.7770 H       
  42 H42            1.8205    -3.3229     4.0840 H       
  43 H43            6.0412    -3.7484     3.5496 H       
  44 H44            5.8275    -2.9192     1.2421 H       
  45 H45            6.1961    -4.4335     5.4486 H       
  46 H46            5.5925    -5.1946     7.8878 H       
  47 H47            2.9579    -4.9230     8.2050 H       
  48 H48            6.1262     4.8189    -2.2609 H       
  49 H49            7.3166     6.9725    -2.3039 H       
  50 H50            7.8596     8.1245    -0.1989 H       
  51 H51            7.2146     7.1282     1.9575 H       
@<TRIPOS>BOND
   1    1    2 ar
   2    1    6 ar
   3    1   36 1
   4    2    3 ar
   5    2   37 1
   6    3    4 ar
   7    3   35 1
   8    4    5 ar
   9    4    7 1
  10    5    6 ar
  11    5   10 1
  12    6   29 1
  13    7    8 1
  14    7   16 1
  15    8    9 2
  16    8   38 1
  17    9   10 1
  18    9   11 1
  19   10   13 2
  20   11   12 am
  21   11   15 2
  22   12   13 1
  23   12   14 1
  24   14   28 ar
  25   14   33 ar
  26   16   17 1
  27   16   39 1
  28   16   40 1
  29   17   18 ar
  30   17   22 ar
  31   18   19 ar
  32   18   41 1
  33   19   20 ar
  34   19   42 1
  35   20   21 ar
  36   20   23 1
  37   21   22 ar
  38   21   43 1
  39   22   44 1
  40   23   24 1
  41   23   27 1
  42   24   25 2
  43   24   45 1
  44   25   26 1
  45   25   46 1
  46   26   27 2
  47   26   47 1
  48   28   30 ar
  49   28   48 1
  50   30   31 ar
  51   30   49 1
  52   31   32 ar
  53   31   50 1
  54   32   33 ar
  55   32   51 1
  56   33   34 1

#	End of record

