#	Name: ASD01910936
#	Creating user name:	WinNT
#	Creation time:	15. 06. 2019 19:56

#	Modifying user name:	WinNT
#	Modification time:	15. 06. 2019 19:56

#	Program:	/corina/corina34_cracker 3.40 0067  02.08.2006

@<TRIPOS>MOLECULE
ASD01910936
  48   51    0    0    0
SMALL
NO_CHARGES


@<TRIPOS>ATOM
   1 N1            -0.0003     2.0854    -0.2707 N.am    
   2 C2             0.1809     0.6272    -0.2422 C.3     
   3 C3            -0.5431     0.0674     0.9886 C.3     
   4 N4            -1.9076     0.6124     1.0190 N.am    
   5 C5            -2.0888     2.0705     0.9905 C.3     
   6 C6            -1.3647     2.6304    -0.2347 C.3     
   7 C7            -2.9738    -0.2104     1.0717 C.2     
   8 C8            -4.3319     0.3492     1.2418 C.ar    
   9 C9            -5.4160    -0.2315     0.5798 C.ar    
  10 C10           -6.6855     0.2893     0.7371 C.ar    
  11 C11           -6.8929     1.3863     1.5485 C.ar    
  12 C12           -5.8169     1.9784     2.2172 C.ar    
  13 C13           -4.5335     1.4531     2.0673 C.ar    
  14 C14           -6.0330     3.1168     3.0585 C.1     
  15 O15           -2.8190    -1.4125     0.9793 O.2     
  16 C16           -6.2102     4.0502     3.7483 C.1     
  17 C17           -6.4263     5.1886     4.5896 C.ar    
  18 C18           -5.3586     5.7880     5.2624 C.ar    
  19 N19           -5.5582     6.8348     6.0359 N.ar    
  20 C20           -6.7578     7.3563     6.2072 C.ar    
  21 C21           -7.8670     6.8209     5.5766 C.ar    
  22 C22           -7.7117     5.7244     4.7479 C.ar    
  23 C23            1.0658     2.9082    -0.3234 C.2     
  24 O24            2.1904     2.4543    -0.2212 O.2     
  25 C25            0.8708     4.3505    -0.5038 C.2     
  26 C26            1.8586     5.2809    -0.6555 C.2     
  27 C27            1.2233     6.5246    -0.7967 C.2     
  28 C28           -0.1076     6.3016    -0.7260 C.2     
  29 O29           -0.3162     4.9897    -0.5548 O.3     
  30 H30           -0.2415     0.1884    -1.1461 H       
  31 H31            1.2433     0.3918    -0.1802 H       
  32 H32           -0.5847    -1.0199     0.9254 H       
  33 H33           -0.0106     0.3637     1.8924 H       
  34 H34           -3.1513     2.3060     0.9285 H       
  35 H35           -1.6664     2.5094     1.8944 H       
  36 H36           -1.3238     3.7178    -0.1702 H       
  37 H37           -1.8950     2.3348    -1.1399 H       
  38 H38           -5.2611    -1.0899    -0.0570 H       
  39 H39           -7.5198    -0.1638     0.2223 H       
  40 H40           -7.8882     1.7885     1.6670 H       
  41 H41           -3.6985     1.9060     2.5812 H       
  42 H42           -4.3615     5.3893     5.1474 H       
  43 H43           -6.8762     8.2154     6.8508 H       
  44 H44           -8.8434     7.2575     5.7264 H       
  45 H45           -8.5603     5.2866     4.2433 H       
  46 H46            2.9226     5.0959    -0.6646 H       
  47 H47            1.7072     7.4800    -0.9358 H       
  48 H48           -0.8766     7.0564    -0.7991 H       
@<TRIPOS>BOND
   1    1    2 1
   2    1   23 am
   3    1    6 1
   4    2    3 1
   5    2   30 1
   6    2   31 1
   7    3    4 1
   8    3   32 1
   9    3   33 1
  10    4    5 1
  11    4    7 am
  12    5    6 1
  13    5   34 1
  14    5   35 1
  15    6   36 1
  16    6   37 1
  17    7    8 1
  18    7   15 2
  19    8    9 ar
  20    8   13 ar
  21    9   10 ar
  22    9   38 1
  23   10   11 ar
  24   10   39 1
  25   11   12 ar
  26   11   40 1
  27   12   13 ar
  28   12   14 1
  29   13   41 1
  30   14   16 3
  31   16   17 1
  32   17   18 ar
  33   17   22 ar
  34   18   19 ar
  35   18   42 1
  36   19   20 ar
  37   20   21 ar
  38   20   43 1
  39   21   22 ar
  40   21   44 1
  41   22   45 1
  42   23   24 2
  43   23   25 1
  44   25   26 2
  45   25   29 1
  46   26   27 1
  47   26   46 1
  48   27   28 2
  49   27   47 1
  50   28   29 1
  51   28   48 1

#	End of record

