#	Name: ASD00071059
#	Creating user name:	WinNT
#	Creation time:	15. 06. 2019 18:30

#	Modifying user name:	WinNT
#	Modification time:	15. 06. 2019 18:30

#	Program:	/corina/corina34_cracker 3.40 0067  02.08.2006

@<TRIPOS>MOLECULE
ASD00071059
  36   38    0    0    0
SMALL
NO_CHARGES


@<TRIPOS>ATOM
   1 N1             2.6320     1.0873    -0.0586 N.ar    
   2 C2             2.4064    -0.1920     0.1586 C.ar    
   3 C3             1.1044    -0.7126     0.1903 C.ar    
   4 C4             0.0387     0.1126    -0.0061 C.ar    
   5 C5             0.2870     1.4813    -0.2378 C.ar    
   6 C6            -0.7642     2.3866    -0.4473 C.ar    
   7 C7            -0.4867     3.7021    -0.6676 C.ar    
   8 C8             0.8279     4.1608    -0.6881 C.ar    
   9 C9             1.8717     3.3092    -0.4890 C.ar    
  10 C10            1.6249     1.9455    -0.2582 C.ar    
  11 N11            3.4815    -1.0444     0.3603 N.pl3   
  12 C12            0.8850    -2.1823     0.4408 C.3     
  13 C13            0.8582    -2.4404     1.9253 C.ar    
  14 C14           -0.3036    -2.2126     2.6488 C.ar    
  15 C15           -0.3249    -2.4511     4.0151 C.ar    
  16 C16            0.8101    -2.9147     4.6521 C.ar    
  17 C17            1.9665    -3.1404     3.9290 C.ar    
  18 C18            1.9886    -2.9093     2.5658 C.ar    
  19 O19           -1.4186    -1.7562     2.0201 O.3     
  20 C20           -2.5781    -1.5442     2.8279 C.3     
  21 F21           -2.2905    -0.5979     3.8173 F       
  22 F22           -3.6257    -1.0776     2.0267 F       
  23 F23           -2.9533    -2.7497     3.4306 F       
  24 H24           -0.9704    -0.2715     0.0146 H       
  25 H25           -1.7878     2.0424    -0.4344 H       
  26 H26           -1.2967     4.3981    -0.8288 H       
  27 H27            1.0227     5.2082    -0.8651 H       
  28 H28            2.8856     3.6808    -0.5086 H       
  29 H29            4.3781    -0.6833     0.4425 H       
  30 H30            3.3370    -2.0018     0.4192 H       
  31 H31           -0.0647    -2.4879     0.0017 H       
  32 H32            1.6953    -2.7531    -0.0127 H       
  33 H33           -1.2279    -2.2742     4.5806 H       
  34 H34            0.7940    -3.1005     5.7159 H       
  35 H35            2.8529    -3.5021     4.4289 H       
  36 H36            2.8918    -3.0910     2.0023 H       
@<TRIPOS>BOND
   1    1    2 ar
   2    1   10 ar
   3    2    3 ar
   4    2   11 1
   5    3    4 ar
   6    3   12 1
   7    4    5 ar
   8    4   24 1
   9    5    6 ar
  10    5   10 ar
  11    6    7 ar
  12    6   25 1
  13    7    8 ar
  14    7   26 1
  15    8    9 ar
  16    8   27 1
  17    9   10 ar
  18    9   28 1
  19   11   29 1
  20   11   30 1
  21   12   13 1
  22   12   31 1
  23   12   32 1
  24   13   14 ar
  25   13   18 ar
  26   14   15 ar
  27   14   19 1
  28   15   16 ar
  29   15   33 1
  30   16   17 ar
  31   16   34 1
  32   17   18 ar
  33   17   35 1
  34   18   36 1
  35   19   20 1
  36   20   21 1
  37   20   22 1
  38   20   23 1

#	End of record

