#	Name: ASD01201019
#	Creating user name:	WinNT
#	Creation time:	15. 06. 2019 19:09

#	Modifying user name:	WinNT
#	Modification time:	15. 06. 2019 19:09

#	Program:	/corina/corina34_cracker 3.40 0067  02.08.2006

@<TRIPOS>MOLECULE
ASD01201019
  44   47    0    0    0
SMALL
NO_CHARGES


@<TRIPOS>ATOM
   1 C1             0.6578     2.2000    -0.1043 C.ar    
   2 C2             0.3908     0.8435    -0.1551 C.ar    
   3 C3             1.4302    -0.0720    -0.1404 C.ar    
   4 C4             2.7317     0.3677    -0.0752 C.ar    
   5 C5             3.0127     1.7353    -0.0235 C.ar    
   6 C6             1.9599     2.6517    -0.0386 C.ar    
   7 C7             4.0619    -0.3425    -0.0428 C.3     
   8 N8             5.0857     0.7061     0.0293 N.am    
   9 C9             4.4770     1.9046     0.0403 C.2     
  10 O10            5.0508     2.9747     0.0953 O.2     
  11 C11            6.5328     0.4837     0.0808 C.3     
  12 O12            4.1406    -1.1855     1.1084 O.3     
  13 C13            3.9257    -0.5023     2.3449 C.3     
  14 C14            7.0649     0.3131    -1.3188 C.ar    
  15 C15            4.1542    -1.4538     3.4909 C.2     
  16 O16            4.4699    -2.6039     3.2705 O.2     
  17 N17            4.0077    -1.0268     4.7609 N.am    
  18 C18            4.2184    -1.9045     5.8179 C.2     
  19 C19            7.4931     1.4154    -2.0346 C.ar    
  20 C20            7.9812     1.2589    -3.3184 C.ar    
  21 C21            8.0415     0.0000    -3.8862 C.ar    
  22 C22            7.6142    -1.1024    -3.1701 C.ar    
  23 C23            7.1301    -0.9465    -1.8847 C.ar    
  24 N24            4.1046    -1.5973     7.0720 N.2     
  25 C25            4.3420    -2.5571     7.9463 C.2     
  26 C26            4.6722    -3.7314     7.4051 C.2     
  27 S27            4.6583    -3.5484     5.6530 S.3     
  28 H28           -0.1568     2.9090    -0.1206 H       
  29 H29           -0.6310     0.4974    -0.2059 H       
  30 H30            1.2187    -1.1303    -0.1798 H       
  31 H31            2.1641     3.7115     0.0005 H       
  32 H32            4.1935    -0.9328    -0.9496 H       
  33 H33            7.0156     1.3403     0.5512 H       
  34 H34            6.7418    -0.4151     0.6610 H       
  35 H35            4.6202     0.3342     2.4233 H       
  36 H36            2.9022    -0.1293     2.3809 H       
  37 H37            3.7552    -0.1070     4.9372 H       
  38 H38            7.4460     2.3989    -1.5909 H       
  39 H39            8.3151     2.1202    -3.8779 H       
  40 H40            8.4222    -0.1221    -4.8895 H       
  41 H41            7.6610    -2.0859    -3.6139 H       
  42 H42            6.7963    -1.8078    -1.3252 H       
  43 H43            4.2746    -2.4046     9.0134 H       
  44 H44            4.9032    -4.6369     7.9466 H       
@<TRIPOS>BOND
   1    1    2 ar
   2    1    6 ar
   3    1   28 1
   4    2    3 ar
   5    2   29 1
   6    3    4 ar
   7    3   30 1
   8    4    5 ar
   9    4    7 1
  10    5    6 ar
  11    5    9 1
  12    6   31 1
  13    7    8 1
  14    7   12 1
  15    7   32 1
  16    8    9 am
  17    8   11 1
  18    9   10 2
  19   11   14 1
  20   11   33 1
  21   11   34 1
  22   12   13 1
  23   13   15 1
  24   13   35 1
  25   13   36 1
  26   14   19 ar
  27   14   23 ar
  28   15   16 2
  29   15   17 am
  30   17   18 1
  31   17   37 1
  32   18   24 2
  33   18   27 1
  34   19   20 ar
  35   19   38 1
  36   20   21 ar
  37   20   39 1
  38   21   22 ar
  39   21   40 1
  40   22   23 ar
  41   22   41 1
  42   23   42 1
  43   24   25 1
  44   25   26 2
  45   25   43 1
  46   26   27 1
  47   26   44 1

#	End of record

