#	Name: ASD04880163
#	Creating user name:	WinNT
#	Creation time:	15. 06. 2019 20:52

#	Modifying user name:	WinNT
#	Modification time:	15. 06. 2019 20:52

#	Program:	/corina/corina34_cracker 3.40 0067  02.08.2006

@<TRIPOS>MOLECULE
ASD04880163
  36   38    0    0    0
SMALL
NO_CHARGES


@<TRIPOS>ATOM
   1 C1            -0.0173     1.3927     0.0251 C.ar    
   2 C2            -1.2367     2.0687     0.0940 C.ar    
   3 C3            -2.4179     1.3560     0.1156 C.ar    
   4 C4            -2.3969    -0.0261     0.0692 C.ar    
   5 C5            -1.1904    -0.7047     0.0012 C.ar    
   6 C6            -0.0010    -0.0022    -0.0274 C.ar    
   7 F7            -1.1774    -2.0550    -0.0429 F       
   8 C8             1.2510     2.1509     0.0017 C.2     
   9 N9             1.2309     3.4952    -0.0927 N.am    
  10 O10            2.3126     1.5620     0.0675 O.2     
  11 N11            0.0939     4.2772    -0.2859 N.2     
  12 C12            0.3290     5.5429    -0.3427 C.2     
  13 C13            1.8115     5.7892    -0.1765 C.3     
  14 C14            2.4053     4.3773    -0.0020 C.3     
  15 C15           -0.6904     6.5894    -0.5399 C.ar    
  16 N16           -0.3240     7.8676    -0.5818 N.ar    
  17 C17           -2.0307     6.2307    -0.6866 C.ar    
  18 C18           -2.9788     7.2234    -0.8712 C.ar    
  19 C19           -2.5595     8.5434    -0.9036 C.ar    
  20 C20           -1.2076     8.8334    -0.7566 C.ar    
  21 O21           -0.7920    10.1245    -0.7872 O.3     
  22 C22            0.6090    10.3589    -0.6307 C.3     
  23 H23           -1.2554     3.1479     0.1306 H       
  24 H24           -3.3614     1.8788     0.1692 H       
  25 H25           -3.3246    -0.5789     0.0864 H       
  26 H26            0.9391    -0.5311    -0.0808 H       
  27 H27            2.2206     6.2725    -1.0637 H       
  28 H28            2.0016     6.3928     0.7109 H       
  29 H29            2.8886     4.2820     0.9703 H       
  30 H30            3.1086     4.1551    -0.8045 H       
  31 H31           -2.3251     5.1920    -0.6570 H       
  32 H32           -4.0231     6.9736    -0.9879 H       
  33 H33           -3.2754     9.3394    -1.0460 H       
  34 H34            0.9374     9.9682     0.3324 H       
  35 H35            1.1529     9.8572    -1.4310 H       
  36 H36            0.8052    11.4303    -0.6742 H       
@<TRIPOS>BOND
   1    1    2 ar
   2    1    8 1
   3    1    6 ar
   4    2    3 ar
   5    2   23 1
   6    3    4 ar
   7    3   24 1
   8    4    5 ar
   9    4   25 1
  10    5    6 ar
  11    5    7 1
  12    6   26 1
  13    8    9 am
  14    8   10 2
  15    9   11 1
  16    9   14 1
  17   11   12 2
  18   12   13 1
  19   12   15 1
  20   13   14 1
  21   13   27 1
  22   13   28 1
  23   14   29 1
  24   14   30 1
  25   15   16 ar
  26   15   17 ar
  27   16   20 ar
  28   17   18 ar
  29   17   31 1
  30   18   19 ar
  31   18   32 1
  32   19   20 ar
  33   19   33 1
  34   20   21 1
  35   21   22 1
  36   22   34 1
  37   22   35 1
  38   22   36 1

#	End of record

