#	Name: ASD03540151
#	Creating user name:	WinNT
#	Creation time:	15. 06. 2019 20:42

#	Modifying user name:	WinNT
#	Modification time:	15. 06. 2019 20:42

#	Program:	/corina/corina34_cracker 3.40 0067  02.08.2006

@<TRIPOS>MOLECULE
ASD03540151
  47   51    0    0    0
SMALL
NO_CHARGES


@<TRIPOS>ATOM
   1 C1            -0.0179     1.4709     0.0101 C.2     
   2 C2             0.0021    -0.0041     0.0020 C.ar    
   3 C3             1.2183    -0.6844    -0.0132 C.ar    
   4 C4             1.2312    -2.0772    -0.0204 C.ar    
   5 C5             2.5132    -2.8053    -0.0360 C.2     
   6 C6             0.0183    -2.7856    -0.0121 C.ar    
   7 C7            -1.1880    -2.0968     0.0031 C.ar    
   8 C8            -1.2006    -0.7205     0.0155 C.ar    
   9 O9             1.0259     2.0926     0.0035 O.2     
  10 O10           -1.1938     2.1287     0.0193 O.3     
  11 O11            2.5219    -4.0203    -0.0423 O.2     
  12 O12            3.6753    -2.1233    -0.0435 O.3     
  13 O13            0.0249    -4.1401    -0.0195 O.3     
  14 C14           -1.2451    -4.7951    -0.0104 C.3     
  15 C15           -1.1375     3.5795     0.0269 C.3     
  16 N16           -5.5803     5.7269    -2.6377 N.2     
  17 S17           -4.9444     6.9076    -3.4256 S.3     
  18 N18           -3.4593     6.7642    -2.9860 N.2     
  19 C19           -3.3431     5.7403    -2.1557 C.ar    
  20 C20           -4.6412     5.1055    -1.9425 C.ar    
  21 C21           -2.2114     5.2074    -1.4887 C.ar    
  22 C22           -2.3509     4.1330    -0.6748 C.ar    
  23 C23           -3.5906     3.5268    -0.4711 C.ar    
  24 C24           -4.7125     3.9841    -1.0781 C.ar    
  25 N25           -0.9646     5.5129     5.2882 N.2     
  26 S26           -0.0394     6.7551     5.1453 S.3     
  27 N27            0.2696     6.6948     3.6221 N.2     
  28 C28           -0.3527     5.6563     3.0877 C.ar    
  29 C29           -1.1080     4.9330     4.1074 C.ar    
  30 C30           -0.3880     5.1789     1.7534 C.ar    
  31 C31           -1.1113     4.0738     1.4503 C.ar    
  32 C32           -1.8325     3.3829     2.4241 C.ar    
  33 C33           -1.8434     3.7853     3.7180 C.ar    
  34 H34            2.1473    -0.1337    -0.0199 H       
  35 H35           -2.1195    -2.6434     0.0090 H       
  36 H36           -2.1419    -0.1912     0.0315 H       
  37 H37            4.4900    -2.6442    -0.0537 H       
  38 H38           -1.7947    -4.5098     0.8866 H       
  39 H39           -1.8123    -4.5002    -0.8932 H       
  40 H40           -1.0971    -5.8750    -0.0177 H       
  41 H41           -0.2366     3.9109    -0.4894 H       
  42 H42           -1.2396     5.6572    -1.6288 H       
  43 H43           -3.6577     2.6719     0.1854 H       
  44 H44           -5.6597     3.4957    -0.9029 H       
  45 H45            0.1611     5.6948     0.9796 H       
  46 H46           -2.3966     2.5069     2.1399 H       
  47 H47           -2.4107     3.2319     4.4518 H       
@<TRIPOS>BOND
   1    1    2 1
   2    1    9 2
   3    1   10 1
   4    2    3 ar
   5    2    8 ar
   6    3    4 ar
   7    3   34 1
   8    4    5 1
   9    4    6 ar
  10    5   11 2
  11    5   12 1
  12    6    7 ar
  13    6   13 1
  14    7    8 ar
  15    7   35 1
  16    8   36 1
  17   10   15 1
  18   12   37 1
  19   13   14 1
  20   14   38 1
  21   14   39 1
  22   14   40 1
  23   15   22 1
  24   15   31 1
  25   15   41 1
  26   16   17 1
  27   16   20 2
  28   17   18 1
  29   18   19 2
  30   19   20 ar
  31   19   21 ar
  32   20   24 ar
  33   21   22 ar
  34   21   42 1
  35   22   23 ar
  36   23   24 ar
  37   23   43 1
  38   24   44 1
  39   25   26 1
  40   25   29 2
  41   26   27 1
  42   27   28 2
  43   28   29 ar
  44   28   30 ar
  45   29   33 ar
  46   30   31 ar
  47   30   45 1
  48   31   32 ar
  49   32   33 ar
  50   32   46 1
  51   33   47 1

#	End of record

