#	Name: ASD01410095
#	Creating user name:	WinNT
#	Creation time:	15. 06. 2019 19:16

#	Modifying user name:	WinNT
#	Modification time:	15. 06. 2019 19:16

#	Program:	/corina/corina34_cracker 3.40 0067  02.08.2006

@<TRIPOS>MOLECULE
ASD01410095
  73   77    0    0    0
SMALL
NO_CHARGES


@<TRIPOS>ATOM
   1 C1            -0.0169     1.3986     0.0097 C.ar    
   2 C2             0.0021    -0.0041     0.0020 C.ar    
   3 C3            -1.1621    -0.7093     0.0093 C.ar    
   4 C4            -2.3912    -0.0347     0.0247 C.ar    
   5 C5            -2.4204     1.3751     0.0330 C.ar    
   6 C6            -1.2305     2.0850     0.0308 C.ar    
   7 C7            -3.7375    -0.4722     0.0352 C.2     
   8 C8            -4.5317     0.6283     0.0492 C.2     
   9 N9            -3.7465     1.7566     0.0481 N.pl3   
  10 C10           -6.0103     0.6156     0.0635 C.ar    
  11 C11           -6.7096     1.4578     0.9283 C.ar    
  12 C12           -8.0913    -0.2428    -0.7756 C.ar    
  13 C13           -6.7120    -0.2351    -0.7924 C.ar    
  14 C14           -4.2054    -1.9047     0.0308 C.3     
  15 C15           -3.6901    -2.6057    -1.2277 C.3     
  16 C16           -4.1652    -4.0600    -1.2322 C.3     
  17 C17           -3.6262    -4.7765     0.0076 C.3     
  18 C18           -4.1415    -4.0755     1.2661 C.3     
  19 C19           -3.6664    -2.6211     1.2706 C.3     
  20 C20            1.2513     2.1499     0.0017 C.2     
  21 O21            2.4258     1.4892    -0.0131 O.3     
  22 C22           -4.2368     3.1371     0.0614 C.3     
  23 C23           -4.3904     3.6018     1.4867 C.2     
  24 N24           -4.8314     4.8489     1.7451 N.am    
  25 O25            1.2377     3.3650     0.0083 O.2     
  26 O26           -4.1172     2.8535     2.4013 O.2     
  27 F27           -8.7713     2.2556     1.7726 F       
  28 C28           -8.0916     1.4411     0.9361 C.ar    
  29 C29           -8.7808     0.5905     0.0870 C.ar    
  30 C30           -4.9863     5.3163     3.1294 C.3     
  31 C31           -6.4118     5.8461     3.3143 C.3     
  32 C32           -6.6965     6.9133     2.2549 C.3     
  33 C33           -6.5893     6.2917     0.8605 C.3     
  34 C34           -5.1605     5.7688     0.6478 C.3     
  35 N35           -8.0510     7.4473     2.4499 N.3     
  36 C36           -8.3173     8.5576     1.5256 C.3     
  37 C37           -9.0598     6.3891     2.3060 C.3     
  38 H38            0.9465    -0.5277    -0.0102 H       
  39 H39           -1.1391    -1.7891     0.0030 H       
  40 H40           -1.2430     3.1649     0.0375 H       
  41 H41           -6.1724     2.1209     1.5903 H       
  42 H42           -8.6344    -0.9007    -1.4380 H       
  43 H43           -6.1757    -0.8860    -1.4671 H       
  44 H44           -5.2951    -1.9310     0.0410 H       
  45 H45           -4.0741    -2.0953    -2.1110 H       
  46 H46           -2.6005    -2.5794    -1.2379 H       
  47 H47           -5.2549    -4.0863    -1.2220 H       
  48 H48           -3.7981    -4.5595    -2.1288 H       
  49 H49           -3.9647    -5.8126     0.0044 H       
  50 H50           -2.5366    -4.7502    -0.0026 H       
  51 H51           -5.2312    -4.1018     1.2763 H       
  52 H52           -3.7575    -4.5859     2.1494 H       
  53 H53           -2.5768    -2.5948     1.2605 H       
  54 H54           -4.0336    -2.1217     2.1672 H       
  55 H55            3.2308     2.0250    -0.0179 H       
  56 H56           -3.5250     3.7805    -0.4558 H       
  57 H57           -5.2022     3.1846    -0.4423 H       
  58 H58           -9.8608     0.5809     0.0956 H       
  59 H59           -4.8123     4.4881     3.8164 H       
  60 H60           -4.2712     6.1147     3.3277 H       
  61 H61           -7.1217     5.0263     3.2048 H       
  62 H62           -6.5112     6.2839     4.3075 H       
  63 H63           -5.9709     7.7212     2.3491 H       
  64 H64           -7.2975     5.4677     0.7741 H       
  65 H65           -6.8151     7.0466     0.1074 H       
  66 H66           -4.4620     6.6056     0.6435 H       
  67 H67           -5.1035     5.2377    -0.3023 H       
  68 H68           -8.2250     8.2052     0.4983 H       
  69 H69           -9.3267     8.9342     1.6913 H       
  70 H70           -7.5977     9.3572     1.7015 H       
  71 H71           -8.8800     5.6123     3.0492 H       
  72 H72          -10.0534     6.8117     2.4552 H       
  73 H73           -8.9944     5.9582     1.3069 H       
@<TRIPOS>BOND
   1    1    2 ar
   2    1   20 1
   3    1    6 ar
   4    2    3 ar
   5    2   38 1
   6    3    4 ar
   7    3   39 1
   8    4    5 ar
   9    4    7 1
  10    5    6 ar
  11    5    9 1
  12    6   40 1
  13    7    8 2
  14    7   14 1
  15    8    9 1
  16    8   10 1
  17    9   22 1
  18   10   11 ar
  19   10   13 ar
  20   11   28 ar
  21   11   41 1
  22   12   13 ar
  23   12   29 ar
  24   12   42 1
  25   13   43 1
  26   14   15 1
  27   14   19 1
  28   14   44 1
  29   15   16 1
  30   15   45 1
  31   15   46 1
  32   16   17 1
  33   16   47 1
  34   16   48 1
  35   17   18 1
  36   17   49 1
  37   17   50 1
  38   18   19 1
  39   18   51 1
  40   18   52 1
  41   19   53 1
  42   19   54 1
  43   20   21 1
  44   20   25 2
  45   21   55 1
  46   22   23 1
  47   22   56 1
  48   22   57 1
  49   23   24 am
  50   23   26 2
  51   24   30 1
  52   24   34 1
  53   27   28 1
  54   28   29 ar
  55   29   58 1
  56   30   31 1
  57   30   59 1
  58   30   60 1
  59   31   32 1
  60   31   61 1
  61   31   62 1
  62   32   33 1
  63   32   35 1
  64   32   63 1
  65   33   34 1
  66   33   64 1
  67   33   65 1
  68   34   66 1
  69   34   67 1
  70   35   36 1
  71   35   37 1
  72   36   68 1
  73   36   69 1
  74   36   70 1
  75   37   71 1
  76   37   72 1
  77   37   73 1

#	End of record

