#	Name: ASD01900561
#	Creating user name:	WinNT
#	Creation time:	15. 06. 2019 19:52

#	Modifying user name:	WinNT
#	Modification time:	15. 06. 2019 19:52

#	Program:	/corina/corina34_cracker 3.40 0067  02.08.2006

@<TRIPOS>MOLECULE
ASD01900561
  42   45    0    0    0
SMALL
NO_CHARGES


@<TRIPOS>ATOM
   1 C1             0.9850     3.1569     0.7507 C.ar    
   2 C2             2.0487     3.6068     1.5302 C.ar    
   3 C3             3.2477     2.9129     1.4977 C.ar    
   4 C4             3.3417     1.7926     0.6865 C.ar    
   5 C5             2.2432     1.4021    -0.0622 C.ar    
   6 N6             1.1166     2.0791    -0.0127 N.ar    
   7 C7            -0.3053     3.8839     0.7789 C.2     
   8 O8            -0.4328     4.8684     1.4799 O.2     
   9 N9            -1.3378     3.4535     0.0271 N.am    
  10 C10           -2.5849     4.0804     0.1267 C.ar    
  11 C11           -2.6583     5.4515     0.3376 C.ar    
  12 C12           -3.8894     6.0698     0.4354 C.ar    
  13 C13           -5.0541     5.3200     0.3227 C.ar    
  14 C14           -4.9801     3.9503     0.1121 C.ar    
  15 C15           -3.7494     3.3328     0.0090 C.ar    
  16 O16           -9.4930     8.9514     0.5430 O.3     
  17 C17           -8.4811     8.4521    -0.3386 C.3     
  18 C18           -8.2944     6.9562    -0.0621 C.3     
  19 N19           -8.0941     6.8193     1.3990 N.am    
  20 C20           -8.9848     7.4485     2.3786 C.3     
  21 C21           -9.1723     8.9094     1.9338 C.3     
  22 C22           -6.9749     6.1170     1.5738 C.2     
  23 N23           -6.3054     5.9481     0.4225 N.am    
  24 C24           -6.9844     6.4580    -0.6278 C.2     
  25 O25           -6.6047     5.6821     2.6466 O.2     
  26 O26           -6.6194     6.5060    -1.7830 O.2     
  27 Cl27          -3.9820     7.7831     0.6994 Cl      
  28 H28            1.9403     4.4842     2.1506 H       
  29 H29            4.0900     3.2376     2.0905 H       
  30 H30            4.2622     1.2299     0.6384 H       
  31 H31            2.3129     0.5298    -0.6952 H       
  32 H32           -1.2164     2.7092    -0.5830 H       
  33 H33           -1.7530     6.0337     0.4254 H       
  34 H34           -5.8853     3.3679     0.0246 H       
  35 H35           -3.6923     2.2675    -0.1593 H       
  36 H36           -8.7910     8.5983    -1.3733 H       
  37 H37           -7.5441     8.9786    -0.1576 H       
  38 H38           -9.1478     6.3742    -0.4101 H       
  39 H39           -9.9469     6.9363     2.3906 H       
  40 H40           -8.5316     7.4159     3.3693 H       
  41 H41           -8.2504     9.4635     2.1103 H       
  42 H42           -9.9819     9.3619     2.5065 H       
@<TRIPOS>BOND
   1    1    2 ar
   2    1    6 ar
   3    1    7 1
   4    2    3 ar
   5    2   28 1
   6    3    4 ar
   7    3   29 1
   8    4    5 ar
   9    4   30 1
  10    5    6 ar
  11    5   31 1
  12    7    8 2
  13    7    9 am
  14    9   10 1
  15    9   32 1
  16   10   11 ar
  17   10   15 ar
  18   11   12 ar
  19   11   33 1
  20   12   13 ar
  21   12   27 1
  22   13   14 ar
  23   13   23 1
  24   14   15 ar
  25   14   34 1
  26   15   35 1
  27   16   17 1
  28   16   21 1
  29   17   18 1
  30   17   36 1
  31   17   37 1
  32   18   19 1
  33   18   24 1
  34   18   38 1
  35   19   20 1
  36   19   22 am
  37   20   21 1
  38   20   39 1
  39   20   40 1
  40   21   41 1
  41   21   42 1
  42   22   23 am
  43   22   25 2
  44   23   24 am
  45   24   26 2

#	End of record

