#	Name: ASD01841067
#	Creating user name:	WinNT
#	Creation time:	15. 06. 2019 19:38

#	Modifying user name:	WinNT
#	Modification time:	15. 06. 2019 19:38

#	Program:	/corina/corina34_cracker 3.40 0067  02.08.2006

@<TRIPOS>MOLECULE
ASD01841067
  32   34    0    0    0
SMALL
NO_CHARGES


@<TRIPOS>ATOM
   1 N1            -0.0154     1.2837     0.0091 N.2     
   2 C2             0.0021    -0.0041     0.0020 C.2     
   3 S3             1.6582    -0.5937    -0.0170 S.3     
   4 C4             2.2619     1.0615    -0.0138 C.ar    
   5 C5             1.1665     1.9308     0.0013 C.ar    
   6 C6             1.4130     3.3200     0.0064 C.ar    
   7 C7             2.6992     3.7977    -0.0038 C.ar    
   8 C8             3.7767     2.9245    -0.0192 C.ar    
   9 C9             3.5605     1.5643    -0.0231 C.ar    
  10 N10           -1.1245    -0.8103     0.0084 N.am    
  11 C11           -0.9933    -2.1517    -0.0000 C.2     
  12 C12           -2.2187    -3.0287     0.0070 C.3     
  13 O13            0.1110    -2.6528    -0.0132 O.2     
  14 C14           -3.0013    -2.8228    -1.2926 C.3     
  15 C15           -4.2121    -3.7611    -1.3045 C.3     
  16 C16           -3.7270    -5.2048    -1.1405 C.3     
  17 C17           -2.9164    -5.3187     0.1532 C.3     
  18 O18           -1.8241    -4.3982     0.1119 O.3     
  19 H19            0.5838     4.0119     0.0180 H       
  20 H20            2.8742     4.8634    -0.0001 H       
  21 H21            4.7851     3.3111    -0.0274 H       
  22 H22            4.4005     0.8856    -0.0344 H       
  23 H23           -2.0077    -0.4095     0.0190 H       
  24 H24           -2.8491    -2.7658     0.8565 H       
  25 H25           -3.3411    -1.7889    -1.3533 H       
  26 H26           -2.3587    -3.0466    -2.1441 H       
  27 H27           -4.8798    -3.5051    -0.4818 H       
  28 H28           -4.7425    -3.6600    -2.2513 H       
  29 H29           -4.5858    -5.8743    -1.0923 H       
  30 H30           -3.0991    -5.4766    -1.9889 H       
  31 H31           -3.5559    -5.0859     1.0046 H       
  32 H32           -2.5326    -6.3339     0.2535 H       
@<TRIPOS>BOND
   1    1    2 2
   2    1    5 1
   3    2    3 1
   4    2   10 1
   5    3    4 1
   6    4    5 ar
   7    4    9 ar
   8    5    6 ar
   9    6    7 ar
  10    6   19 1
  11    7    8 ar
  12    7   20 1
  13    8    9 ar
  14    8   21 1
  15    9   22 1
  16   10   11 am
  17   10   23 1
  18   11   12 1
  19   11   13 2
  20   12   14 1
  21   12   18 1
  22   12   24 1
  23   14   15 1
  24   14   25 1
  25   14   26 1
  26   15   16 1
  27   15   27 1
  28   15   28 1
  29   16   17 1
  30   16   29 1
  31   16   30 1
  32   17   18 1
  33   17   31 1
  34   17   32 1

#	End of record

