#	Name: ASD01881000
#	Creating user name:	WinNT
#	Creation time:	15. 06. 2019 19:41

#	Modifying user name:	WinNT
#	Modification time:	15. 06. 2019 19:41

#	Program:	/corina/corina34_cracker 3.40 0067  02.08.2006

@<TRIPOS>MOLECULE
ASD01881000
  46   49    0    0    0
SMALL
NO_CHARGES


@<TRIPOS>ATOM
   1 N1            -0.0324     1.2629    -0.1618 N.ar    
   2 C2             0.0470    -0.0504    -0.2010 C.ar    
   3 N3             1.1933    -0.6840    -0.0496 N.ar    
   4 C4             2.3211    -0.0176     0.1498 C.ar    
   5 C5             2.2875     1.3672     0.1989 C.ar    
   6 C6             1.0563     2.0051     0.0346 C.ar    
   7 C7             3.5469     2.1635     0.4241 C.3     
   8 O8             4.2294     2.3372    -0.8193 O.3     
   9 C9             5.3914     3.0379    -0.7917 C.ar    
  10 C10            6.1068     3.2440    -1.9677 C.ar    
  11 C11            7.2816     3.9530    -1.9397 C.ar    
  12 C12            7.7670     4.4717    -0.7344 C.ar    
  13 C13            7.0445     4.2620     0.4451 C.ar    
  14 C14            5.8621     3.5533     0.4092 C.ar    
  15 C15            8.2754     4.3476    -3.0036 C.3     
  16 N16            9.3276     5.1076    -2.3192 N.am    
  17 C17            9.0299     5.1765    -1.0104 C.2     
  18 O18            9.7072     5.7412    -0.1732 O.2     
  19 Cl19           3.8215    -0.8681     0.3478 Cl      
  20 Cl20           7.6321     4.8980     1.9497 Cl      
  21 C21            0.9624     3.4842     0.0775 C.ar    
  22 C22            1.8943     4.2620    -0.6098 C.ar    
  23 C23            1.8081     5.6357    -0.5707 C.ar    
  24 C24            0.7866     6.2505     0.1579 C.ar    
  25 C25           -0.1462     5.4704     0.8459 C.ar    
  26 C26           -0.0613     4.0968     0.8006 C.ar    
  27 C27            0.6961     7.6791     0.1997 C.1     
  28 N28            0.6243     8.8123     0.2329 N.1     
  29 C29           10.1868     7.1209    -3.4102 C.3     
  30 C30           10.5081     5.6951    -2.9576 C.3     
  31 H31           -0.8529    -0.6256    -0.3614 H       
  32 H32            3.2909     3.1391     0.8374 H       
  33 H33            4.1933     1.6315     1.1222 H       
  34 H34            5.7379     2.8460    -2.9015 H       
  35 H35            5.3041     3.3917     1.3196 H       
  36 H36            8.6987     3.4578    -3.4696 H       
  37 H37            7.7916     4.9710    -3.7556 H       
  38 H38            2.6840     3.7866    -1.1726 H       
  39 H39            2.5299     6.2377    -1.1026 H       
  40 H40           -0.9360     5.9446     1.4097 H       
  41 H41           -0.7822     3.4936     1.3324 H       
  42 H42            9.3618     7.0988    -4.1223 H       
  43 H43            9.9045     7.7216    -2.5456 H       
  44 H44           11.0651     7.5580    -3.8852 H       
  45 H45           11.3331     5.7172    -2.2456 H       
  46 H46           10.7904     5.0944    -3.8222 H       
@<TRIPOS>BOND
   1    1    2 ar
   2    1    6 ar
   3    2    3 ar
   4    2   31 1
   5    3    4 ar
   6    4    5 ar
   7    4   19 1
   8    5    6 ar
   9    5    7 1
  10    6   21 1
  11    7    8 1
  12    7   32 1
  13    7   33 1
  14    8    9 1
  15    9   10 ar
  16    9   14 ar
  17   10   11 ar
  18   10   34 1
  19   11   12 ar
  20   11   15 1
  21   12   13 ar
  22   12   17 1
  23   13   14 ar
  24   13   20 1
  25   14   35 1
  26   15   16 1
  27   15   36 1
  28   15   37 1
  29   16   17 am
  30   16   30 1
  31   17   18 2
  32   21   22 ar
  33   21   26 ar
  34   22   23 ar
  35   22   38 1
  36   23   24 ar
  37   23   39 1
  38   24   25 ar
  39   24   27 1
  40   25   26 ar
  41   25   40 1
  42   26   41 1
  43   27   28 3
  44   29   30 1
  45   29   42 1
  46   29   43 1
  47   29   44 1
  48   30   45 1
  49   30   46 1

#	End of record

