#	Name: ASD04220049
#	Creating user name:	WinNT
#	Creation time:	15. 06. 2019 20:48

#	Modifying user name:	WinNT
#	Modification time:	15. 06. 2019 20:48

#	Program:	/corina/corina34_cracker 3.40 0067  02.08.2006

@<TRIPOS>MOLECULE
ASD04220049
  70   73    0    0    0
SMALL
NO_CHARGES


@<TRIPOS>ATOM
   1 C1            -0.0168     1.3872     0.0097 C.ar    
   2 C2             0.0021    -0.0041     0.0020 C.ar    
   3 C3             1.2065    -0.6827    -0.0131 C.ar    
   4 C4             2.4001     0.0338    -0.0206 C.ar    
   5 C5             2.3802     1.4376    -0.0129 C.ar    
   6 C6             1.1596     2.1041     0.0023 C.ar    
   7 C7             3.8241    -0.3497    -0.0363 C.2     
   8 C8             4.5381     0.8136    -0.0368 C.2     
   9 N9             3.6921     1.8702    -0.0231 N.pl3   
  10 C10            6.0421     0.9076    -0.0499 C.3     
  11 O11            6.4335     2.2819    -0.0465 O.3     
  12 C12            7.7684     2.5439    -0.0572 C.ar    
  13 C13            8.2201     3.8641    -0.0546 C.ar    
  14 C14            8.6764     1.5027    -0.0649 C.ar    
  15 C15           10.0414     1.7786    -0.0758 C.ar    
  16 C16           10.4981     3.1050    -0.0790 C.ar    
  17 C17            9.5739     4.1429    -0.0653 C.ar    
  18 C18           11.2549     0.9384    -0.0854 C.2     
  19 C19           12.3192     1.8263    -0.0935 C.2     
  20 O20           11.8482     3.0836    -0.0895 O.3     
  21 C21           11.3206    -0.5257    -0.0859 C.2     
  22 O22           11.3394    -1.1333    -1.1393 O.2     
  23 C23           13.7450     1.4492    -0.1047 C.ar    
  24 C24            4.3664    -1.7129    -0.0483 C.2     
  25 O25            4.5810    -2.2726    -1.1063 O.2     
  26 C26           14.7326     2.4377    -0.1121 C.ar    
  27 C27           16.0639     2.0775    -0.1225 C.ar    
  28 C28           16.4226     0.7410    -0.1257 C.ar    
  29 C29           15.4500    -0.2435    -0.1189 C.ar    
  30 C30           14.1148     0.1016    -0.1021 C.ar    
  31 O31           11.3601    -1.1994     1.0819 O.3     
  32 C32           11.4620    -3.2321     2.4191 C.3     
  33 C33           11.4245    -2.6480     1.0055 C.3     
  34 O34           -1.1672    -0.6981     0.0099 O.3     
  35 S35           -1.7133    -1.0066    -1.3769 S.o2    
  36 O36           -3.0993    -1.4119    -1.2012 O.co2   
  37 O37           -1.5967     0.2167    -2.1553 O.co2   
  38 O38           -0.8954    -2.0797    -1.9206 O.co2   
  39 O39            7.3212     4.8846    -0.0418 O.3     
  40 C40            7.8479     6.2130    -0.0398 C.3     
  41 O41            4.6268    -2.3453     1.1138 O.3     
  42 C42            5.3918    -4.2426     2.4349 C.3     
  43 C43            5.1621    -3.6921     1.0259 C.3     
  44 H44           -0.9620     1.9096     0.0170 H       
  45 H45            1.2213    -1.7626    -0.0187 H       
  46 H46            1.1340     3.1838     0.0083 H       
  47 H47            3.9681     2.8001    -0.0204 H       
  48 H48            6.4447     0.4129     0.8340 H       
  49 H49            6.4287     0.4219    -0.9458 H       
  50 H50            8.3294     0.4800    -0.0621 H       
  51 H51            9.9137     5.1680    -0.0676 H       
  52 H52           14.4541     3.4812    -0.1100 H       
  53 H53           16.8283     2.8404    -0.1286 H       
  54 H54           17.4666     0.4648    -0.1339 H       
  55 H55           15.7373    -1.2846    -0.1218 H       
  56 H56           13.3569    -0.6677    -0.0968 H       
  57 H57           12.3403    -2.8566     2.9442 H       
  58 H58           10.5621    -2.9364     2.9584 H       
  59 H59           11.5104    -4.3195     2.3617 H       
  60 H60           10.5463    -3.0235     0.4803 H       
  61 H61           12.3244    -2.9437     0.4662 H       
  62 H62            8.4671     6.3570     0.8456 H       
  63 H63            8.4518     6.3658    -0.9343 H       
  64 H64            7.0265     6.9295    -0.0292 H       
  65 H65            4.4459    -4.2621     2.9761 H       
  66 H66            5.7936    -5.2537     2.3689 H       
  67 H67            6.0997    -3.6041     2.9634 H       
  68 H68            4.4542    -4.3306     0.4974 H       
  69 H69            6.1080    -3.6726     0.4848 H       
  70 Na70          22.4666    11.9295     7.9761 Du      
@<TRIPOS>BOND
   1    1    2 ar
   2    1    6 ar
   3    1   44 1
   4    2    3 ar
   5    2   34 1
   6    3    4 ar
   7    3   45 1
   8    4    5 ar
   9    4    7 1
  10    5    6 ar
  11    5    9 1
  12    6   46 1
  13    7    8 2
  14    7   24 1
  15    8    9 1
  16    8   10 1
  17    9   47 1
  18   10   11 1
  19   10   48 1
  20   10   49 1
  21   11   12 1
  22   12   13 ar
  23   12   14 ar
  24   13   39 1
  25   13   17 ar
  26   14   15 ar
  27   14   50 1
  28   15   16 ar
  29   15   18 1
  30   16   17 ar
  31   16   20 1
  32   17   51 1
  33   18   19 2
  34   18   21 1
  35   19   20 1
  36   19   23 1
  37   21   22 2
  38   21   31 1
  39   23   26 ar
  40   23   30 ar
  41   24   25 2
  42   24   41 1
  43   26   27 ar
  44   26   52 1
  45   27   28 ar
  46   27   53 1
  47   28   29 ar
  48   28   54 1
  49   29   30 ar
  50   29   55 1
  51   30   56 1
  52   31   33 1
  53   32   33 1
  54   32   57 1
  55   32   58 1
  56   32   59 1
  57   33   60 1
  58   33   61 1
  59   34   35 1
  60   35   36 ar
  61   35   37 ar
  62   35   38 ar
  63   39   40 1
  64   40   62 1
  65   40   63 1
  66   40   64 1
  67   41   43 1
  68   42   43 1
  69   42   65 1
  70   42   66 1
  71   42   67 1
  72   43   68 1
  73   43   69 1

#	End of record

