#	Name: ASD02190026
#	Creating user name:	WinNT
#	Creation time:	15. 06. 2019 20:18

#	Modifying user name:	WinNT
#	Modification time:	15. 06. 2019 20:18

#	Program:	/corina/corina34_cracker 3.40 0067  02.08.2006

@<TRIPOS>MOLECULE
ASD02190026
  46   48    0    0    0
SMALL
NO_CHARGES


@<TRIPOS>ATOM
   1 C1            -0.0187     1.5258     0.0104 C.3     
   2 N2            -2.2568    -0.1487     0.9569 N.ar    
   3 O3            -5.1980    -6.3760     2.5815 O.2     
   4 C4            -5.6984    -7.3742     2.1080 C.2     
   5 N5            -6.1400    -8.3561     2.9187 N.am    
   6 C6            -5.8263    -7.5166     0.6132 C.3     
   7 C7            -5.2618    -6.2912    -0.0583 C.ar    
   8 C8            -6.0791    -5.2072    -0.3184 C.ar    
   9 C9            -5.5617    -4.0839    -0.9360 C.ar    
  10 C10           -3.9253    -6.2491    -0.4090 C.ar    
  11 C11           -3.4080    -5.1260    -1.0270 C.ar    
  12 C12           -4.2268    -4.0445    -1.2931 C.ar    
  13 C13           -3.6628    -2.8202    -1.9668 C.3     
  14 C14           -3.1514    -1.8624    -0.9217 C.ar    
  15 C15           -1.8421    -1.4066    -0.9680 C.ar    
  16 C16           -1.4117    -0.5257     0.0127 C.ar    
  17 C17            0.0021    -0.0041     0.0020 C.3     
  18 N18           -3.9450    -1.4465     0.0500 N.ar    
  19 C19           -3.5022    -0.6030     0.9726 C.ar    
  20 C20           -4.4219    -0.1579     2.0476 C.ar    
  21 C21           -3.9760     0.7279     3.0271 C.ar    
  22 C22           -4.8369     1.1389     4.0257 C.ar    
  23 Cl23          -4.2842     2.2425     5.2465 Cl      
  24 C24           -5.7365    -0.6192     2.0788 C.ar    
  25 C25           -6.5902    -0.1976     3.0782 C.ar    
  26 C26           -6.1403     0.6724     4.0545 C.ar    
  27 H27            1.0039     1.9031     0.0027 H       
  28 H28           -0.5459     1.8868    -0.8726 H       
  29 H29           -0.5289     1.8773     0.9072 H       
  30 H30           -6.0576    -8.2645     3.8809 H       
  31 H31           -6.5401    -9.1545     2.5401 H       
  32 H32           -5.2757    -8.3977     0.2837 H       
  33 H33           -6.8778    -7.6247     0.3472 H       
  34 H34           -7.1222    -5.2383    -0.0404 H       
  35 H35           -6.2004    -3.2372    -1.1399 H       
  36 H36           -3.2857    -7.0943    -0.2017 H       
  37 H37           -2.3641    -5.0935    -1.3019 H       
  38 H38           -2.8438    -3.1120    -2.6241 H       
  39 H39           -4.4439    -2.3356    -2.5527 H       
  40 H40           -1.1723    -1.7310    -1.7506 H       
  41 H41            0.5123    -0.3556    -0.8948 H       
  42 H42            0.5293    -0.3651     0.8851 H       
  43 H43           -2.9594     1.0917     3.0053 H       
  44 H44           -6.0869    -1.3054     1.3220 H       
  45 H45           -7.6078    -0.5584     3.1054 H       
  46 H46           -6.8118     0.9996     4.8345 H       
@<TRIPOS>BOND
   1    1   17 1
   2    1   27 1
   3    1   28 1
   4    1   29 1
   5    2   19 ar
   6    2   16 ar
   7    3    4 2
   8    4    6 1
   9    4    5 am
  10    5   30 1
  11    5   31 1
  12    6   32 1
  13    6   33 1
  14    6    7 1
  15    7   10 ar
  16    7    8 ar
  17    8   34 1
  18    8    9 ar
  19    9   12 ar
  20    9   35 1
  21   10   36 1
  22   10   11 ar
  23   11   37 1
  24   11   12 ar
  25   12   13 1
  26   13   38 1
  27   13   39 1
  28   13   14 1
  29   14   15 ar
  30   14   18 ar
  31   15   40 1
  32   15   16 ar
  33   16   17 1
  34   17   41 1
  35   17   42 1
  36   18   19 ar
  37   19   20 1
  38   20   21 ar
  39   20   24 ar
  40   21   43 1
  41   21   22 ar
  42   22   23 1
  43   22   26 ar
  44   24   44 1
  45   24   25 ar
  46   25   26 ar
  47   25   45 1
  48   26   46 1

#	End of record

