#	Name: ASD05130080
#	Creating user name:	WinNT
#	Creation time:	15. 06. 2019 20:56

#	Modifying user name:	WinNT
#	Modification time:	15. 06. 2019 20:56

#	Program:	/corina/corina34_cracker 3.40 0067  02.08.2006

@<TRIPOS>MOLECULE
ASD05130080
  51   54    0    0    0
SMALL
NO_CHARGES


@<TRIPOS>ATOM
   1 N1            -0.1625     1.5512     0.1044 N.am    
   2 C2             0.0506     0.4236     0.8112 C.2     
   3 O3             1.1178     0.2464     1.3662 O.2     
   4 N4            -0.9194    -0.5077     0.9028 N.am    
   5 C5            -0.6634    -1.7237     1.5461 C.ar    
   6 C6            -1.6737    -2.3638     2.2518 C.ar    
   7 C7            -1.4179    -3.5641     2.8853 C.ar    
   8 C8            -0.1574    -4.1286     2.8175 C.ar    
   9 C9             0.8510    -3.4934     2.1160 C.ar    
  10 C10            0.6000    -2.2958     1.4755 C.ar    
  11 C11            0.8112     2.5585     0.0822 C.ar    
  12 C12            0.4341     3.8872    -0.0898 C.ar    
  13 C13            1.3928     4.8846    -0.1122 C.ar    
  14 C14            2.7289     4.5668     0.0364 C.ar    
  15 C15            3.1148     3.2372     0.2091 C.ar    
  16 C16            2.1485     2.2327     0.2370 C.ar    
  17 F17           -0.8712     4.2037    -0.2355 F       
  18 Br18           4.0351     5.9339     0.0049 Br      
  19 N19            6.5375     2.8555     1.7780 N.am    
  20 C20            5.2349     3.1678     1.6322 C.2     
  21 C21            4.5474     2.8943     0.3682 C.2     
  22 C22            5.2367     2.3197    -0.6647 C.2     
  23 C23            6.6041     2.0014    -0.4872 C.ar    
  24 C24            7.3480     1.4129    -1.5173 C.ar    
  25 N25            8.6180     1.1234    -1.3359 N.ar    
  26 C26            9.2439     1.3706    -0.1901 C.ar    
  27 C27            8.5819     1.9520     0.8819 C.ar    
  28 C28            7.2378     2.2779     0.7441 C.ar    
  29 O29            4.6263     3.6785     2.5557 O.2     
  30 C30            7.2154     3.1397     3.0453 C.3     
  31 C31            7.0835     1.9326     3.9761 C.3     
  32 N32           10.5853     1.0404    -0.0629 N.pl3   
  33 H33           -0.9881     1.6637    -0.3921 H       
  34 H34           -1.7950    -0.3350     0.5227 H       
  35 H35           -2.6583    -1.9233     2.3055 H       
  36 H36           -2.2031    -4.0623     3.4346 H       
  37 H37            0.0401    -5.0673     3.3137 H       
  38 H38            1.8346    -3.9365     2.0654 H       
  39 H39            1.3867    -1.8026     0.9238 H       
  40 H40            1.0957     5.9142    -0.2466 H       
  41 H41            2.4423     1.2026     0.3750 H       
  42 H42            4.7437     2.1115    -1.6028 H       
  43 H43            6.8768     1.1956    -2.4645 H       
  44 H44            9.1021     2.1473     1.8080 H       
  45 H45            8.2702     3.3392     2.8564 H       
  46 H46            6.7590     4.0115     3.5140 H       
  47 H47            7.5399     1.0607     3.5074 H       
  48 H48            7.5879     2.1440     4.9190 H       
  49 H49            6.0287     1.7330     4.1650 H       
  50 H50           11.0572     0.6333    -0.8063 H       
  51 H51           11.0514     1.2167     0.7693 H       
@<TRIPOS>BOND
   1    1    2 am
   2    1   11 1
   3    1   33 1
   4    2    3 2
   5    2    4 am
   6    4    5 1
   7    4   34 1
   8    5    6 ar
   9    5   10 ar
  10    6    7 ar
  11    6   35 1
  12    7    8 ar
  13    7   36 1
  14    8    9 ar
  15    8   37 1
  16    9   10 ar
  17    9   38 1
  18   10   39 1
  19   11   12 ar
  20   11   16 ar
  21   12   13 ar
  22   12   17 1
  23   13   14 ar
  24   13   40 1
  25   14   15 ar
  26   14   18 1
  27   15   16 ar
  28   15   21 1
  29   16   41 1
  30   19   20 am
  31   19   28 1
  32   19   30 1
  33   20   21 1
  34   20   29 2
  35   21   22 2
  36   22   23 1
  37   22   42 1
  38   23   24 ar
  39   23   28 ar
  40   24   25 ar
  41   24   43 1
  42   25   26 ar
  43   26   27 ar
  44   26   32 1
  45   27   28 ar
  46   27   44 1
  47   30   31 1
  48   30   45 1
  49   30   46 1
  50   31   47 1
  51   31   48 1
  52   31   49 1
  53   32   50 1
  54   32   51 1

#	End of record

