#	Name: ASD05170092
#	Creating user name:	WinNT
#	Creation time:	15. 06. 2019 20:57

#	Modifying user name:	WinNT
#	Modification time:	15. 06. 2019 20:57

#	Program:	/corina/corina34_cracker 3.40 0067  02.08.2006

@<TRIPOS>MOLECULE
ASD05170092
  42   45    0    0    0
SMALL
NO_CHARGES


@<TRIPOS>ATOM
   1 C1            -0.2240     1.4594    -1.1166 C.ar    
   2 C2            -0.2353     0.0841    -1.2695 C.ar    
   3 C3             0.9630    -0.6073    -1.1346 C.ar    
   4 C4             2.1201     0.0952    -0.8539 C.ar    
   5 N5             2.0969     1.4073    -0.7135 N.ar    
   6 C6             0.9765     2.0988    -0.8352 C.ar    
   7 O7             0.9998     3.4473    -0.6835 O.3     
   8 C8             2.2649     4.0460    -0.3952 C.3     
   9 C9             2.0960     5.5375    -0.2618 C.2     
  10 C10            0.8936     6.2457    -0.3903 C.2     
  11 N11            3.0484     6.4019     0.0010 N.2     
  12 C12            1.2300     7.5546    -0.1920 C.2     
  13 C13            0.4217     8.7832    -0.1930 C.2     
  14 N14            2.5843     7.5886     0.0586 N.pl3   
  15 C15            3.2708     8.8524     0.3520 C.3     
  16 C16            2.5532     9.9941    -0.3665 C.3     
  17 N17            1.1055     9.9530    -0.1744 N.am    
  18 O18           -0.7940     8.7511    -0.2098 O.2     
  19 C19            3.2516     9.1060     1.8607 C.3     
  20 F20            0.9963    -1.9505    -1.2757 F       
  21 C21            0.4124    11.1442     0.0376 C.ar    
  22 C22           -0.1901    11.4122     1.2660 C.ar    
  23 C23           -0.8666    12.6024     1.4353 C.ar    
  24 N24           -0.9474    13.4802     0.4532 N.ar    
  25 C25           -0.3908    13.2634    -0.7236 C.ar    
  26 C26            0.3088    12.1007    -0.9715 C.ar    
  27 H27           -1.1360     2.0287    -1.2191 H       
  28 H28           -1.1539    -0.4399    -1.4883 H       
  29 H29            3.0543    -0.4362    -0.7478 H       
  30 H30            2.6549     3.6395     0.5379 H       
  31 H31            2.9619     3.8302    -1.2050 H       
  32 H32           -0.0865     5.8437    -0.6008 H       
  33 H33            4.3025     8.7953     0.0049 H       
  34 H34            2.9319    10.9430     0.0134 H       
  35 H35            2.7707     9.9316    -1.4328 H       
  36 H36            3.7601     8.2892     2.3729 H       
  37 H37            3.7615    10.0446     2.0779 H       
  38 H38            2.2194     9.1648     2.2061 H       
  39 H39           -0.1283    10.6978     2.0736 H       
  40 H40           -1.3364    12.8184     2.3834 H       
  41 H41           -0.4806    14.0076    -1.5011 H       
  42 H42            0.7661    11.9317    -1.9352 H       
@<TRIPOS>BOND
   1    1    2 ar
   2    1    6 ar
   3    1   27 1
   4    2    3 ar
   5    2   28 1
   6    3    4 ar
   7    3   20 1
   8    4    5 ar
   9    4   29 1
  10    5    6 ar
  11    6    7 1
  12    7    8 1
  13    8    9 1
  14    8   30 1
  15    8   31 1
  16    9   11 2
  17    9   10 1
  18   10   12 2
  19   10   32 1
  20   11   14 1
  21   12   14 1
  22   12   13 1
  23   13   17 am
  24   13   18 2
  25   14   15 1
  26   15   16 1
  27   15   19 1
  28   15   33 1
  29   16   17 1
  30   16   34 1
  31   16   35 1
  32   17   21 1
  33   19   36 1
  34   19   37 1
  35   19   38 1
  36   21   22 ar
  37   21   26 ar
  38   22   23 ar
  39   22   39 1
  40   23   24 ar
  41   23   40 1
  42   24   25 ar
  43   25   26 ar
  44   25   41 1
  45   26   42 1

#	End of record

