#	Name: ASD05130067
#	Creating user name:	WinNT
#	Creation time:	15. 06. 2019 20:56

#	Modifying user name:	WinNT
#	Modification time:	15. 06. 2019 20:56

#	Program:	/corina/corina34_cracker 3.40 0067  02.08.2006

@<TRIPOS>MOLECULE
ASD05130067
  65   69    0    0    0
SMALL
NO_CHARGES


@<TRIPOS>ATOM
   1 N1            -0.1619     1.5508     0.1046 N.am    
   2 C2             0.0501     0.4228     0.8110 C.2     
   3 O3             1.1172     0.2446     1.3662 O.2     
   4 N4            -0.9205    -0.5078     0.9021 N.am    
   5 C5            -0.6655    -1.7243     1.5451 C.ar    
   6 C6            -1.6764    -2.3639     2.2504 C.ar    
   7 C7            -1.4216    -3.5646     2.8835 C.ar    
   8 C8            -0.1614    -4.1299     2.8157 C.ar    
   9 C9             0.8475    -3.4953     2.1146 C.ar    
  10 C10            0.5975    -2.2972     1.4745 C.ar    
  11 C11            0.8125     2.5575     0.0829 C.ar    
  12 C12            0.4365     3.8864    -0.0889 C.ar    
  13 C13            1.3957     4.8833    -0.1104 C.ar    
  14 C14            2.7318     4.5645     0.0380 C.ar    
  15 C15            3.1167     3.2344     0.2107 C.ar    
  16 C16            2.1496     2.2306     0.2381 C.ar    
  17 F17           -0.8685     4.2038    -0.2354 F       
  18 N18            6.5394     2.8505     1.7790 N.am    
  19 C19            5.2368     3.1631     1.6337 C.2     
  20 C20            4.5490     2.8902     0.3696 C.2     
  21 C21            5.2377     2.3151    -0.6633 C.2     
  22 C22            6.6048     1.9956    -0.4859 C.ar    
  23 C23            7.3482     1.4066    -1.5161 C.ar    
  24 N24            8.6181     1.1164    -1.3350 N.ar    
  25 C25            9.2443     1.3629    -0.1892 C.ar    
  26 C26            8.5827     1.9444     0.8831 C.ar    
  27 C27            7.2389     2.2715     0.7453 C.ar    
  28 N28           10.5856     1.0320    -0.0623 N.pl3   
  29 C29           13.2532     0.6765     2.6049 C.3     
  30 C30           12.4778     0.3399     1.3285 C.3     
  31 C31           11.2898     1.2976     1.1946 C.3     
  32 C32           11.8075     2.7393     1.1972 C.3     
  33 C33           12.6088     2.9832     2.4786 C.3     
  34 O34           13.6793     2.0397     2.5564 O.3     
  35 O35            4.6291     3.6754     2.5568 O.2     
  36 C36            7.2175     3.1335     3.0465 C.3     
  37 C37            7.0856     1.9256     3.9762 C.3     
  38 Cl38           3.9319     5.8186     0.0092 Cl      
  39 H39           -0.9874     1.6641    -0.3920 H       
  40 H40           -1.7959    -0.3344     0.5220 H       
  41 H41           -2.6607    -1.9227     2.3040 H       
  42 H42           -2.2073    -4.0623     3.4325 H       
  43 H43            0.0353    -5.0689     3.3116 H       
  44 H44            1.8308    -3.9390     2.0640 H       
  45 H45            1.3846    -1.8045     0.9230 H       
  46 H46            1.0993     5.9132    -0.2440 H       
  47 H47            2.4425     1.2002     0.3757 H       
  48 H48            4.7445     2.1074    -1.6014 H       
  49 H49            6.8767     1.1895    -2.4632 H       
  50 H50            9.1033     2.1399     1.8089 H       
  51 H51           11.0571     0.6249    -0.8058 H       
  52 H52           12.6090     0.5277     3.4715 H       
  53 H53           14.1243     0.0260     2.6833 H       
  54 H54           13.1333     0.4496     0.4645 H       
  55 H55           12.1141    -0.6862     1.3831 H       
  56 H56           10.6079     1.1521     2.0324 H       
  57 H57           12.4494     2.8973     0.3305 H       
  58 H58           10.9645     3.4291     1.1578 H       
  59 H59           13.0156     3.9943     2.4660 H       
  60 H60           11.9561     2.8645     3.3436 H       
  61 H61            8.2723     3.3331     2.8576 H       
  62 H62            6.7612     4.0050     3.5160 H       
  63 H63            7.5419     1.0541     3.5067 H       
  64 H64            7.5901     2.1362     4.9192 H       
  65 H65            6.0308     1.7260     4.1652 H       
@<TRIPOS>BOND
   1    1    2 am
   2    1   11 1
   3    1   39 1
   4    2    3 2
   5    2    4 am
   6    4    5 1
   7    4   40 1
   8    5    6 ar
   9    5   10 ar
  10    6    7 ar
  11    6   41 1
  12    7    8 ar
  13    7   42 1
  14    8    9 ar
  15    8   43 1
  16    9   10 ar
  17    9   44 1
  18   10   45 1
  19   11   12 ar
  20   11   16 ar
  21   12   13 ar
  22   12   17 1
  23   13   14 ar
  24   13   46 1
  25   14   15 ar
  26   14   38 1
  27   15   16 ar
  28   15   20 1
  29   16   47 1
  30   18   19 am
  31   18   27 1
  32   18   36 1
  33   19   20 1
  34   19   35 2
  35   20   21 2
  36   21   22 1
  37   21   48 1
  38   22   23 ar
  39   22   27 ar
  40   23   24 ar
  41   23   49 1
  42   24   25 ar
  43   25   26 ar
  44   25   28 1
  45   26   27 ar
  46   26   50 1
  47   28   31 1
  48   28   51 1
  49   29   30 1
  50   29   34 1
  51   29   52 1
  52   29   53 1
  53   30   31 1
  54   30   54 1
  55   30   55 1
  56   31   32 1
  57   31   56 1
  58   32   33 1
  59   32   57 1
  60   32   58 1
  61   33   34 1
  62   33   59 1
  63   33   60 1
  64   36   37 1
  65   36   61 1
  66   36   62 1
  67   37   63 1
  68   37   64 1
  69   37   65 1

#	End of record

