#	Name: ASD03092878
#	Creating user name:	WinNT
#	Creation time:	15. 06. 2019 20:33

#	Modifying user name:	WinNT
#	Modification time:	15. 06. 2019 20:33

#	Program:	/corina/corina34_cracker 3.40 0067  02.08.2006

@<TRIPOS>MOLECULE
ASD03092878
  39   41    0    0    0
SMALL
NO_CHARGES


@<TRIPOS>ATOM
   1 N1            -0.0204     1.6518     0.0111 N.am    
   2 S2             0.0021    -0.0041     0.0020 S.o2    
   3 O3             1.3604    -0.3860    -0.1664 O.2     
   4 O4            -0.7920    -0.4222     1.1038 O.2     
   5 C5            -0.8462    -0.5292    -1.4503 C.ar    
   6 C6            -2.2107    -0.7471    -1.4131 C.ar    
   7 C7            -2.8762    -1.1591    -2.5525 C.ar    
   8 C8            -2.1772    -1.3528    -3.7293 C.ar    
   9 C9            -0.8128    -1.1340    -3.7668 C.ar    
  10 C10           -0.1480    -0.7179    -2.6284 C.ar    
  11 C11           -2.9025    -1.8029    -4.9712 C.3     
  12 H12           -3.9613    -1.5475    -5.0159 H       
  13 C13           -2.1197    -1.8026    -6.2858 C.3     
  14 C14           -2.4681    -3.1272    -5.6022 C.3     
  15 H15           -1.6576    -3.6730    -5.1191 H       
  16 C16           -3.5528    -3.9915    -6.2481 C.3     
  17 N17           -2.9687    -5.2614    -6.6866 N.pl3   
  18 C18           -3.7713    -6.2218    -7.3100 C.ar    
  19 C19           -5.1210    -5.9706    -7.5190 C.ar    
  20 C20           -5.9120    -6.9208    -8.1349 C.ar    
  21 C21           -5.3601    -8.1233    -8.5434 C.ar    
  22 F22           -6.1357    -9.0514    -9.1452 F       
  23 C23           -4.0145    -8.3757    -8.3364 C.ar    
  24 C24           -3.2186    -7.4260    -7.7260 C.ar    
  25 H25            0.8130     2.1481     0.0058 H       
  26 H26           -0.8669     2.1253     0.0177 H       
  27 H27           -2.7569    -0.5958    -0.4937 H       
  28 H28           -3.9422    -1.3300    -2.5233 H       
  29 H29           -0.2666    -1.2856    -4.6860 H       
  30 H30            0.9174    -0.5433    -2.6586 H       
  31 H31           -2.6635    -1.5474    -7.1953 H       
  32 H32           -1.0800    -1.4769    -6.2523 H       
  33 H33           -4.3424    -4.1861    -5.5223 H       
  34 H34           -3.9707    -3.4677    -7.1079 H       
  35 H35           -2.0252    -5.4360    -6.5445 H       
  36 H36           -5.5520    -5.0332    -7.1999 H       
  37 H37           -6.9617    -6.7259    -8.2977 H       
  38 H38           -3.5861    -9.3141    -8.6561 H       
  39 H39           -2.1681    -7.6215    -7.5688 H       
@<TRIPOS>BOND
   1    1    2 am
   2    1   25 1
   3    1   26 1
   4    2    3 2
   5    2    4 2
   6    2    5 1
   7    5   10 ar
   8    5    6 ar
   9    6    7 ar
  10    6   27 1
  11    7    8 ar
  12    7   28 1
  13    8    9 ar
  14    8   11 1
  15    9   10 ar
  16    9   29 1
  17   10   30 1
  18   11   12 1
  19   11   14 1
  20   11   13 1
  21   13   14 1
  22   13   31 1
  23   13   32 1
  24   14   15 1
  25   14   16 1
  26   16   17 1
  27   16   33 1
  28   16   34 1
  29   17   18 1
  30   17   35 1
  31   18   24 ar
  32   18   19 ar
  33   19   20 ar
  34   19   36 1
  35   20   21 ar
  36   20   37 1
  37   21   22 1
  38   21   23 ar
  39   23   24 ar
  40   23   38 1
  41   24   39 1

#	End of record

