#	Name: ASD02500591
#	Creating user name:	WinNT
#	Creation time:	15. 06. 2019 20:23

#	Modifying user name:	WinNT
#	Modification time:	15. 06. 2019 20:23

#	Program:	/corina/corina34_cracker 3.40 0067  02.08.2006

@<TRIPOS>MOLECULE
ASD02500591
  71   75    0    0    0
SMALL
NO_CHARGES


@<TRIPOS>ATOM
   1 N1            -4.9435     5.1213    -1.6874 N.ar    
   2 C2            -5.8303     5.5326    -2.5608 C.ar    
   3 C3            -7.1962     5.3385    -2.3658 C.ar    
   4 C4            -7.6409     4.7045    -1.2409 C.ar    
   5 C5            -6.6857     4.2637    -0.3053 C.ar    
   6 C6            -7.0674     3.6050     0.8742 C.ar    
   7 C7            -6.1131     3.1944     1.7545 C.ar    
   8 C8            -4.7619     3.4196     1.5006 C.ar    
   9 C9            -4.3567     4.0551     0.3673 C.ar    
  10 C10           -5.3119     4.4940    -0.5658 C.ar    
  11 S11           -2.6412     4.3275     0.0713 S.o2    
  12 O12           -2.5050     5.7019    -0.2632 O.2     
  13 O13           -1.9461     3.7177     1.1503 O.2     
  14 N14           -2.2365     3.4730    -1.2882 N.am    
  15 C15           -2.4004     2.0923    -1.3161 C.ar    
  16 C16           -3.0026     1.4886    -2.4134 C.ar    
  17 C17           -3.1653     0.1150    -2.4414 C.ar    
  18 C18           -2.7196    -0.6597    -1.3584 C.ar    
  19 C19           -2.1155    -0.0370    -0.2615 C.ar    
  20 C20           -1.9550     1.3186    -0.2462 C.ar    
  21 C21           -2.8880    -2.1221    -1.3774 C.2     
  22 O22           -3.9825    -2.6055    -1.5965 O.2     
  23 N23           -1.8295    -2.9254    -1.1520 N.am    
  24 C24           -1.9580    -4.3876    -1.2454 C.3     
  25 C25           -0.8502    -4.9159    -2.1629 C.3     
  26 N26            0.4516    -4.4364    -1.6799 N.3     
  27 C27            0.5358    -2.9711    -1.7409 C.3     
  28 C28           -0.5138    -2.3627    -0.8121 C.3     
  29 C29            1.5523    -5.0585    -2.4276 C.3     
  30 C30            2.8843    -4.4693    -1.9590 C.3     
  31 C31            3.1113    -4.8273    -0.4889 C.3     
  32 C32            4.0050    -5.0353    -2.7927 C.ar    
  33 C33            4.8065    -4.1909    -3.5379 C.ar    
  34 C34            5.8344    -4.7100    -4.3026 C.ar    
  35 C35            6.0611    -6.0735    -4.3217 C.ar    
  36 C36            5.2601    -6.9178    -3.5758 C.ar    
  37 C37            4.2349    -6.3983    -2.8077 C.ar    
  38 O38           -3.7528    -0.4804    -3.5095 O.3     
  39 C39           -4.1811     0.3723    -4.5732 C.3     
  40 H40           -5.4932     6.0355    -3.4551 H       
  41 H41           -7.9027     5.6895    -3.1035 H       
  42 H42           -8.6960     4.5460    -1.0735 H       
  43 H43           -8.1118     3.4253     1.0824 H       
  44 H44           -6.4076     2.6877     2.6617 H       
  45 H45           -4.0241     3.0849     2.2147 H       
  46 H46           -1.8851     3.9355    -2.0651 H       
  47 H47           -3.3434     2.0906    -3.2427 H       
  48 H48           -1.7716    -0.6300     0.5731 H       
  49 H49           -1.4839     1.7942     0.6012 H       
  50 H50           -1.8536    -4.8284    -0.2540 H       
  51 H51           -2.9320    -4.6436    -1.6624 H       
  52 H52           -0.8615    -6.0059    -2.1564 H       
  53 H53           -1.0164    -4.5561    -3.1783 H       
  54 H54            1.5296    -2.6505    -1.4284 H       
  55 H55            0.3502    -2.6383    -2.7622 H       
  56 H56           -0.5334    -1.2808    -0.9427 H       
  57 H57           -0.2679    -2.6051     0.2218 H       
  58 H58            1.5489    -6.1342    -2.2516 H       
  59 H59            1.4237    -4.8642    -3.4924 H       
  60 H60            2.8610    -3.3852    -2.0696 H       
  61 H61            2.3007    -4.4180     0.1140 H       
  62 H62            3.1346    -5.9114    -0.3784 H       
  63 H63            4.0602    -4.4076    -0.1551 H       
  64 H64            4.6294    -3.1256    -3.5230 H       
  65 H65            6.4602    -4.0503    -4.8854 H       
  66 H66            6.8637    -6.4791    -4.9197 H       
  67 H67            5.4370    -7.9831    -3.5910 H       
  68 H68            3.6115    -7.0576    -2.2220 H       
  69 H69           -4.6326    -0.2295    -5.3619 H       
  70 H70           -4.9143     1.0847    -4.1950 H       
  71 H71           -3.3232     0.9121    -4.9740 H       
@<TRIPOS>BOND
   1    1    2 ar
   2    1   10 ar
   3    2    3 ar
   4    2   40 1
   5    3    4 ar
   6    3   41 1
   7    4    5 ar
   8    4   42 1
   9    5    6 ar
  10    5   10 ar
  11    6    7 ar
  12    6   43 1
  13    7    8 ar
  14    7   44 1
  15    8    9 ar
  16    8   45 1
  17    9   10 ar
  18    9   11 1
  19   11   12 2
  20   11   13 2
  21   11   14 am
  22   14   15 1
  23   14   46 1
  24   15   16 ar
  25   15   20 ar
  26   16   17 ar
  27   16   47 1
  28   17   18 ar
  29   17   38 1
  30   18   19 ar
  31   18   21 1
  32   19   20 ar
  33   19   48 1
  34   20   49 1
  35   21   22 2
  36   21   23 am
  37   23   24 1
  38   23   28 1
  39   24   25 1
  40   24   50 1
  41   24   51 1
  42   25   26 1
  43   25   52 1
  44   25   53 1
  45   26   27 1
  46   26   29 1
  47   27   28 1
  48   27   54 1
  49   27   55 1
  50   28   56 1
  51   28   57 1
  52   29   30 1
  53   29   58 1
  54   29   59 1
  55   30   31 1
  56   30   32 1
  57   30   60 1
  58   31   61 1
  59   31   62 1
  60   31   63 1
  61   32   33 ar
  62   32   37 ar
  63   33   34 ar
  64   33   64 1
  65   34   35 ar
  66   34   65 1
  67   35   36 ar
  68   35   66 1
  69   36   37 ar
  70   36   67 1
  71   37   68 1
  72   38   39 1
  73   39   69 1
  74   39   70 1
  75   39   71 1

#	End of record

