#	Name: ASD00450043
#	Creating user name:	WinNT
#	Creation time:	15. 06. 2019 18:36

#	Modifying user name:	WinNT
#	Modification time:	15. 06. 2019 18:36

#	Program:	/corina/corina34_cracker 3.40 0067  02.08.2006

@<TRIPOS>MOLECULE
ASD00450043
  53   55    0    0    0
SMALL
NO_CHARGES


@<TRIPOS>ATOM
   1 C1             0.9972     0.7736     0.7351 C.ar    
   2 C2             0.5678    -0.5464     0.9425 C.ar    
   3 C3             1.4786    -1.5127     1.3338 C.ar    
   4 C4             2.8111    -1.1814     1.5211 C.ar    
   5 C5             3.2466     0.1174     1.3196 C.ar    
   6 C6             2.3506     1.1005     0.9275 C.ar    
   7 C7             0.0390     1.8060     0.3137 C.2     
   8 O8            -0.5596     2.4575     1.1486 O.2     
   9 N9            -0.1761     2.0307    -0.9977 N.am    
  10 N10            2.7891     2.4032     0.7252 N.pl3   
  11 C11            3.9527     2.8557     1.3565 C.ar    
  12 C12            4.6586     3.9316     0.8289 C.ar    
  13 C13            4.4022     2.2352     2.5145 C.ar    
  14 C14            5.5512     2.6843     3.1361 C.ar    
  15 C15            6.2548     3.7512     2.6068 C.ar    
  16 C16            5.8080     4.3760     1.4562 C.ar    
  17 F17            3.6913    -2.1323     1.9034 F       
  18 F18            4.2224     4.5413    -0.2950 F       
  19 I19            7.9963     4.4280     3.5546 I       
  20 O20           -0.7358    -0.8742     0.7605 O.3     
  21 C21           -1.0913    -2.1782     0.9012 C.ar    
  22 C22           -1.2497    -2.7211     2.1665 C.ar    
  23 C23           -1.6129    -4.0537     2.3066 C.ar    
  24 C24           -1.3017    -2.9659    -0.2225 C.ar    
  25 C25           -1.6632    -4.2919    -0.0812 C.ar    
  26 N26           -1.7739    -4.6045     3.5800 N.am    
  27 C27           -1.8165    -4.8385     1.1784 C.ar    
  28 S28           -3.1067    -4.2217     4.4852 S.o2    
  29 C29           -4.4979    -4.9391     3.5684 C.3     
  30 O30           -2.9080    -4.9126     5.7110 O.2     
  31 O31           -3.1619    -2.8023     4.4449 O.2     
  32 C32           -4.2793    -6.4446     3.4056 C.3     
  33 C33           -5.7971    -4.6926     4.3379 C.3     
  34 H34            1.1493    -2.5287     1.4940 H       
  35 H35            4.2871     0.3656     1.4685 H       
  36 H36            0.3012     1.5112    -1.6635 H       
  37 H37           -0.8082     2.7118    -1.2758 H       
  38 H38            2.2884     2.9991     0.1463 H       
  39 H39            3.8538     1.4024     2.9291 H       
  40 H40            5.9006     2.2018     4.0369 H       
  41 H41            6.3573     5.2114     1.0477 H       
  42 H42           -1.0904    -2.1088     3.0418 H       
  43 H43           -1.1830    -2.5414    -1.2085 H       
  44 H44           -1.8262    -4.9023    -0.9571 H       
  45 H45           -1.1051    -5.2112     3.9341 H       
  46 H46           -2.0991    -5.8753     1.2860 H       
  47 H47           -4.5640    -4.4731     2.5852 H       
  48 H48           -4.2132    -6.9105     4.3888 H       
  49 H49           -5.1152    -6.8756     2.8547 H       
  50 H50           -3.3537    -6.6201     2.8574 H       
  51 H51           -5.9529    -3.6201     4.4539 H       
  52 H52           -6.6330    -5.1237     3.7870 H       
  53 H53           -5.7310    -5.1586     5.3211 H       
@<TRIPOS>BOND
   1    1    2 ar
   2    1    6 ar
   3    1    7 1
   4    2    3 ar
   5    2   20 1
   6    3    4 ar
   7    3   34 1
   8    4    5 ar
   9    4   17 1
  10    5    6 ar
  11    5   35 1
  12    6   10 1
  13    7    8 2
  14    7    9 am
  15    9   36 1
  16    9   37 1
  17   10   11 1
  18   10   38 1
  19   11   13 ar
  20   11   12 ar
  21   12   16 ar
  22   12   18 1
  23   13   14 ar
  24   13   39 1
  25   14   15 ar
  26   14   40 1
  27   15   16 ar
  28   15   19 1
  29   16   41 1
  30   20   21 1
  31   21   22 ar
  32   21   24 ar
  33   22   23 ar
  34   22   42 1
  35   23   27 ar
  36   23   26 1
  37   24   25 ar
  38   24   43 1
  39   25   27 ar
  40   25   44 1
  41   26   28 am
  42   26   45 1
  43   27   46 1
  44   28   29 1
  45   28   30 2
  46   28   31 2
  47   29   32 1
  48   29   33 1
  49   29   47 1
  50   32   48 1
  51   32   49 1
  52   32   50 1
  53   33   51 1
  54   33   52 1
  55   33   53 1

#	End of record

