#	Name: ASD00170707
#	Creating user name:	WinNT
#	Creation time:	15. 06. 2019 18:32

#	Modifying user name:	WinNT
#	Modification time:	15. 06. 2019 18:32

#	Program:	/corina/corina34_cracker 3.40 0067  02.08.2006

@<TRIPOS>MOLECULE
ASD00170707
  30   33    0    0    0
SMALL
NO_CHARGES


@<TRIPOS>ATOM
   1 C1            -0.0165     1.3687     0.0096 C.2     
   2 C2             0.0022    -0.0034    -0.0331 C.2     
   3 C3             1.3489    -0.5522    -0.0399 C.2     
   4 C4             2.3280     0.4249    -0.0020 C.2     
   5 S5             1.6083     2.0218     0.0423 S.3     
   6 C6             1.2205    -2.0218    -0.0867 C.2     
   7 C7            -0.2182    -2.3453    -0.1078 C.ar    
   8 C8            -0.8975    -3.5644    -0.1510 C.ar    
   9 C9            -2.2773    -3.5828    -0.1621 C.ar    
  10 C10           -2.9970    -2.3996    -0.1311 C.ar    
  11 C11           -2.3420    -1.1844    -0.0883 C.ar    
  12 C12           -0.9498    -1.1479    -0.0760 C.ar    
  13 O13            2.1377    -2.8232    -0.1050 O.2     
  14 C14           -2.5751     3.9626     0.9203 C.ar    
  15 C15           -1.4114     3.2236     0.9474 C.ar    
  16 C16           -1.2443     2.1860     0.0200 C.ar    
  17 C17           -2.2767     1.9475    -0.8974 C.ar    
  18 C18           -3.4065     2.7365    -0.8515 C.ar    
  19 N19           -3.5224     3.7038     0.0386 N.ar    
  20 N20            3.6791     0.1769     0.0006 N.pl3   
  21 H21           -0.3439    -4.4914    -0.1760 H       
  22 H22           -2.8002    -4.5271    -0.1955 H       
  23 H23           -4.0766    -2.4275    -0.1410 H       
  24 H24           -2.9080    -0.2648    -0.0646 H       
  25 H25           -2.7154     4.7613     1.6336 H       
  26 H26           -0.6403     3.4413     1.6715 H       
  27 H27           -2.1885     1.1581    -1.6291 H       
  28 H28           -4.2076     2.5607    -1.5541 H       
  29 H29            4.0045    -0.7365    -0.0254 H       
  30 H30            4.3076     0.9152     0.0284 H       
@<TRIPOS>BOND
   1    1    2 2
   2    1    5 1
   3    1   16 1
   4    2    3 1
   5    2   12 1
   6    3    4 2
   7    3    6 1
   8    4    5 1
   9    4   20 1
  10    6    7 1
  11    6   13 2
  12    7    8 ar
  13    7   12 ar
  14    8    9 ar
  15    8   21 1
  16    9   10 ar
  17    9   22 1
  18   10   11 ar
  19   10   23 1
  20   11   12 ar
  21   11   24 1
  22   14   15 ar
  23   14   19 ar
  24   14   25 1
  25   15   16 ar
  26   15   26 1
  27   16   17 ar
  28   17   18 ar
  29   17   27 1
  30   18   19 ar
  31   18   28 1
  32   20   29 1
  33   20   30 1

#	End of record

