#	Name: ASD03091070
#	Creating user name:	WinNT
#	Creation time:	15. 06. 2019 20:30

#	Modifying user name:	WinNT
#	Modification time:	15. 06. 2019 20:30

#	Program:	/corina/corina34_cracker 3.40 0067  02.08.2006

@<TRIPOS>MOLECULE
ASD03091070
  41   43    0    0    0
SMALL
NO_CHARGES


@<TRIPOS>ATOM
   1 C1            -0.2241     1.3860     0.0415 C.2     
   2 C2             0.0030     0.0415    -0.0270 C.2     
   3 C3             1.4136    -0.0543    -0.1879 C.2     
   4 N4             1.8636     1.1658    -0.1992 N.2     
   5 O5             0.9755     1.9758    -0.0738 O.3     
   6 C6            -1.3727    -1.7860    -1.1646 C.2     
   7 C7            -0.9887    -1.0615     0.0490 C.2     
   8 O8            -2.1857    -2.6901    -1.1022 O.2     
   9 N9            -0.8261    -1.4518    -2.3503 N.am    
  10 C10           -1.5398    -1.3984     1.2446 C.2     
  11 N11           -1.1812    -0.7217     2.3781 N.pl3   
  12 C12           -1.7480    -1.0683     3.6078 C.ar    
  13 C13           -1.3847    -0.3820     4.7597 C.ar    
  14 C14           -1.9467    -0.7263     5.9732 C.ar    
  15 C15           -2.8707    -1.7543     6.0425 C.ar    
  16 C16           -3.2342    -2.4400     4.8967 C.ar    
  17 C17           -2.6800    -2.0960     3.6795 C.ar    
  18 Cl18          -3.5748    -2.1847     7.5698 Cl      
  19 C19           -1.1178    -2.2055    -3.4922 C.ar    
  20 C20           -2.3848    -2.7480    -3.6628 C.ar    
  21 C21           -2.6702    -3.4913    -4.7913 C.ar    
  22 C22           -1.6949    -3.6960    -5.7514 C.ar    
  23 C23           -0.4316    -3.1565    -5.5840 C.ar    
  24 C24           -0.1425    -2.4076    -4.4602 C.ar    
  25 Cl25          -2.0566    -4.6317    -7.1682 Cl      
  26 C26           -1.5563     2.0708     0.2070 C.3     
  27 H27            1.9947    -0.9599    -0.2817 H       
  28 H28           -0.2305    -0.6887    -2.4119 H       
  29 H29           -2.2610    -2.2005     1.2999 H       
  30 H30           -0.5335    -0.0014     2.3284 H       
  31 H31           -0.6632     0.4198     4.7063 H       
  32 H32           -1.6647    -0.1931     6.8690 H       
  33 H33           -3.9552    -3.2421     4.9538 H       
  34 H34           -2.9673    -2.6286     2.7849 H       
  35 H35           -3.1461    -2.5892    -2.9134 H       
  36 H36           -3.6553    -3.9134    -4.9243 H       
  37 H37            0.3279    -3.3180    -6.3347 H       
  38 H38            0.8423    -1.9831    -4.3321 H       
  39 H39           -1.7679     2.2024     1.2682 H       
  40 H40           -1.5273     3.0449    -0.2812 H       
  41 H41           -2.3374     1.4604    -0.2462 H       
@<TRIPOS>BOND
   1    1    2 2
   2    1    5 1
   3    1   26 1
   4    2    3 1
   5    2    7 1
   6    3    4 2
   7    3   27 1
   8    4    5 1
   9    6    7 1
  10    6    8 2
  11    6    9 am
  12    7   10 2
  13    9   19 1
  14    9   28 1
  15   10   11 1
  16   10   29 1
  17   11   12 1
  18   11   30 1
  19   12   13 ar
  20   12   17 ar
  21   13   14 ar
  22   13   31 1
  23   14   15 ar
  24   14   32 1
  25   15   16 ar
  26   15   18 1
  27   16   17 ar
  28   16   33 1
  29   17   34 1
  30   19   20 ar
  31   19   24 ar
  32   20   21 ar
  33   20   35 1
  34   21   22 ar
  35   21   36 1
  36   22   23 ar
  37   22   25 1
  38   23   24 ar
  39   23   37 1
  40   24   38 1
  41   26   39 1
  42   26   40 1
  43   26   41 1

#	End of record

