#	Name: ASD00071039
#	Creating user name:	WinNT
#	Creation time:	15. 06. 2019 18:30

#	Modifying user name:	WinNT
#	Modification time:	15. 06. 2019 18:30

#	Program:	/corina/corina34_cracker 3.40 0067  02.08.2006

@<TRIPOS>MOLECULE
ASD00071039
  47   49    0    0    0
SMALL
NO_CHARGES


@<TRIPOS>ATOM
   1 N1            -0.0539     1.2617    -0.3889 N.ar    
   2 C2            -0.0207    -0.0441    -0.2232 C.ar    
   3 C3             1.1917    -0.7477    -0.1795 C.ar    
   4 C4             2.3703    -0.0776    -0.3107 C.ar    
   5 C5             2.3281     1.3208    -0.4884 C.ar    
   6 C6             3.5045     2.0717    -0.6293 C.ar    
   7 C7             3.4252     3.4255    -0.7994 C.ar    
   8 C8             2.1858     4.0693    -0.8340 C.ar    
   9 C9             1.0278     3.3671    -0.6995 C.ar    
  10 C10            1.0716     1.9736    -0.5234 C.ar    
  11 N11           -1.2134    -0.7405    -0.0881 N.pl3   
  12 C12            1.1905    -2.2424     0.0126 C.3     
  13 C13            2.5981    -2.7660    -0.1119 C.ar    
  14 C14            3.3901    -2.9039     1.0176 C.ar    
  15 C15            4.6860    -3.3862     0.9003 C.ar    
  16 C16            5.1871    -3.7289    -0.3409 C.ar    
  17 C17            4.3998    -3.5924    -1.4681 C.ar    
  18 C18            3.1013    -3.1159    -1.3554 C.ar    
  19 O19            2.3255    -2.9871    -2.4637 O.3     
  20 C20            2.9090    -3.3666    -3.7117 C.3     
  21 O21            2.8979    -2.5665     2.2386 O.3     
  22 C22            3.7696    -2.7344     3.3584 C.3     
  23 O23            4.5649     4.1537    -0.9361 O.3     
  24 C24            4.4165     5.5642    -1.1108 C.3     
  25 C25            5.7972     6.2093    -1.2461 C.3     
  26 H26            3.3130    -0.6036    -0.2791 H       
  27 H27            4.4672     1.5830    -0.6032 H       
  28 H28            2.1461     5.1400    -0.9691 H       
  29 H29            0.0776     3.8796    -0.7277 H       
  30 H30           -2.0532    -0.2581    -0.0339 H       
  31 H31           -1.2073    -1.7096    -0.0478 H       
  32 H32            0.8002    -2.4812     1.0020 H       
  33 H33            0.5618    -2.7060    -0.7476 H       
  34 H34            5.3035    -3.4934     1.7799 H       
  35 H35            6.1961    -4.1038    -0.4302 H       
  36 H36            4.7937    -3.8610    -2.4372 H       
  37 H37            3.7925    -2.7566    -3.9001 H       
  38 H38            3.1945    -4.4179    -3.6746 H       
  39 H39            2.1851    -3.2148    -4.5124 H       
  40 H40            3.2541    -2.4293     4.2691 H       
  41 H41            4.0601    -3.7819     3.4389 H       
  42 H42            4.6595    -2.1201     3.2214 H       
  43 H43            3.8344     5.7595    -2.0115 H       
  44 H44            3.9018     5.9851    -0.2471 H       
  45 H45            6.3793     6.0140    -0.3454 H       
  46 H46            6.3119     5.7884    -2.1097 H       
  47 H47            5.6841     7.2852    -1.3794 H       
@<TRIPOS>BOND
   1    1    2 ar
   2    1   10 ar
   3    2    3 ar
   4    2   11 1
   5    3    4 ar
   6    3   12 1
   7    4    5 ar
   8    4   26 1
   9    5    6 ar
  10    5   10 ar
  11    6    7 ar
  12    6   27 1
  13    7    8 ar
  14    7   23 1
  15    8    9 ar
  16    8   28 1
  17    9   10 ar
  18    9   29 1
  19   11   30 1
  20   11   31 1
  21   12   13 1
  22   12   32 1
  23   12   33 1
  24   13   14 ar
  25   13   18 ar
  26   14   15 ar
  27   14   21 1
  28   15   16 ar
  29   15   34 1
  30   16   17 ar
  31   16   35 1
  32   17   18 ar
  33   17   36 1
  34   18   19 1
  35   19   20 1
  36   20   37 1
  37   20   38 1
  38   20   39 1
  39   21   22 1
  40   22   40 1
  41   22   41 1
  42   22   42 1
  43   23   24 1
  44   24   25 1
  45   24   43 1
  46   24   44 1
  47   25   45 1
  48   25   46 1
  49   25   47 1

#	End of record

