#	Name: ASD02401007
#	Creating user name:	WinNT
#	Creation time:	15. 06. 2019 20:20

#	Modifying user name:	WinNT
#	Modification time:	15. 06. 2019 20:20

#	Program:	/corina/corina34_cracker 3.40 0067  02.08.2006

@<TRIPOS>MOLECULE
ASD02401007
  30   31    0    0    0
SMALL
NO_CHARGES


@<TRIPOS>ATOM
   1 C1             1.8574    -1.1129    -0.2897 C.ar    
   2 C2             0.5368    -0.6965    -0.3749 C.ar    
   3 C3             0.2355     0.6574    -0.3442 C.ar    
   4 C4             1.2506     1.5873    -0.2288 C.ar    
   5 C5             2.5660     1.1697    -0.1445 C.ar    
   6 C6             2.8689    -0.1790    -0.1745 C.ar    
   7 C7             3.6714     2.1863    -0.0198 C.3     
   8 C8             3.7834     2.9668    -1.3041 C.ar    
   9 C9             4.8946     2.8106    -2.1119 C.ar    
  10 C10            4.9997     3.5248    -3.2897 C.ar    
  11 C11            3.9890     4.3994    -3.6617 C.ar    
  12 C12            2.8751     4.5543    -2.8495 C.ar    
  13 C13            2.7722     3.8335    -1.6755 C.ar    
  14 O14           -0.4599    -1.6132    -0.4887 O.3     
  15 O15            4.0903     5.1035    -4.8197 O.3     
  16 C16            3.3571     3.1427     1.1324 C.3     
  17 H17            2.0942    -2.1665    -0.3089 H       
  18 H18           -0.7918     0.9840    -0.4107 H       
  19 H19            1.0165     2.6413    -0.2049 H       
  20 H20            3.8971    -0.5027    -0.1085 H       
  21 H21            4.6138     1.6759     0.1785 H       
  22 H22            5.6813     2.1299    -1.8217 H       
  23 H23            5.8680     3.4027    -3.9202 H       
  24 H24            2.0870     5.2345    -3.1369 H       
  25 H25            1.9050     3.9535    -1.0429 H       
  26 H26           -0.8163    -1.9139     0.3584 H       
  27 H27            3.7131     4.6533    -5.5880 H       
  28 H28            2.4147     3.6532     0.9340 H       
  29 H29            3.2761     2.5783     2.0613 H       
  30 H30            4.1566     3.8780     1.2226 H       
@<TRIPOS>BOND
   1    1    2 ar
   2    1    6 ar
   3    1   17 1
   4    2    3 ar
   5    2   14 1
   6    3    4 ar
   7    3   18 1
   8    4    5 ar
   9    4   19 1
  10    5    6 ar
  11    5    7 1
  12    6   20 1
  13    7    8 1
  14    7   16 1
  15    7   21 1
  16    8    9 ar
  17    8   13 ar
  18    9   10 ar
  19    9   22 1
  20   10   11 ar
  21   10   23 1
  22   11   12 ar
  23   11   15 1
  24   12   13 ar
  25   12   24 1
  26   13   25 1
  27   14   26 1
  28   15   27 1
  29   16   28 1
  30   16   29 1
  31   16   30 1

#	End of record

