#	Name: ASD01812076
#	Creating user name:	WinNT
#	Creation time:	15. 06. 2019 19:27

#	Modifying user name:	WinNT
#	Modification time:	15. 06. 2019 19:27

#	Program:	/corina/corina34_cracker 3.40 0067  02.08.2006

@<TRIPOS>MOLECULE
ASD01812076
  46   49    0    0    0
SMALL
NO_CHARGES


@<TRIPOS>ATOM
   1 C1            -0.0167     1.3820     0.0096 C.ar    
   2 C2             0.0021    -0.0041     0.0020 C.ar    
   3 C3             1.1959    -0.6932    -0.0127 C.ar    
   4 C4             2.4016     0.0019    -0.0200 C.ar    
   5 C5             2.3831     1.4075    -0.0128 C.ar    
   6 C6             1.1665     2.0939     0.0022 C.ar    
   7 N7             3.6010    -0.6771    -0.0337 N.pl3   
   8 C8             4.7870    -0.0549    -0.0404 C.2     
   9 C9             4.8957     1.3208    -0.0340 C.2     
  10 C10            3.6667     2.1313    -0.0207 C.2     
  11 C11            3.5775    -2.1419    -0.0409 C.3     
  12 C12            3.5572    -2.6371    -1.4640 C.ar    
  13 O13            3.7091     3.3491    -0.0150 O.2     
  14 C14            6.2161     1.9660    -0.0412 C.2     
  15 O15            6.3092     3.3109    -0.0348 O.3     
  16 O16            7.2244     1.2870    -0.0529 O.2     
  17 F17            1.1476     3.4448     0.0091 F       
  18 C18            4.7445    -2.8837    -2.1284 C.ar    
  19 C19            4.7236    -3.3339    -3.4312 C.ar    
  20 C20            3.5094    -3.5431    -4.0871 C.ar    
  21 C21            2.3238    -3.3009    -3.4151 C.ar    
  22 C22            2.3528    -2.8507    -2.1049 C.ar    
  23 N23            3.5553    -3.9832    -5.4090 N.3     
  24 C24            2.3069    -4.6083    -5.8506 C.3     
  25 C25            1.1491    -3.6405    -5.5769 C.3     
  26 C26            0.9794    -3.5248    -4.0604 C.3     
  27 C27            4.6985    -4.8798    -5.6261 C.3     
  28 H28           -0.9604     1.9071     0.0170 H       
  29 H29           -0.9295    -0.5505     0.0080 H       
  30 H30            1.1956    -1.7731    -0.0181 H       
  31 H31            5.6884    -0.6497    -0.0508 H       
  32 H32            4.4660    -2.5220     0.4634 H       
  33 H33            2.6863    -2.4936     0.4789 H       
  34 H34            7.1990     3.6894    -0.0400 H       
  35 H35            5.6876    -2.7235    -1.6271 H       
  36 H36            5.6525    -3.5255    -3.9477 H       
  37 H37            1.4267    -2.6579    -1.5837 H       
  38 H38            2.3618    -4.8202    -6.9184 H       
  39 H39            2.1470    -5.5350    -5.2993 H       
  40 H40            1.3795    -2.6618    -5.9978 H       
  41 H41            0.2323    -4.0273    -6.0220 H       
  42 H42            0.5397    -4.4440    -3.6734 H       
  43 H43            0.3230    -2.6851    -3.8318 H       
  44 H44            4.6467    -5.7113    -4.9233 H       
  45 H45            4.6707    -5.2637    -6.6459 H       
  46 H46            5.6265    -4.3296    -5.4701 H       
@<TRIPOS>BOND
   1    1    2 ar
   2    1    6 ar
   3    1   28 1
   4    2    3 ar
   5    2   29 1
   6    3    4 ar
   7    3   30 1
   8    4    5 ar
   9    4    7 1
  10    5    6 ar
  11    5   10 1
  12    6   17 1
  13    7    8 1
  14    7   11 1
  15    8    9 2
  16    8   31 1
  17    9   10 1
  18    9   14 1
  19   10   13 2
  20   11   12 1
  21   11   32 1
  22   11   33 1
  23   12   18 ar
  24   12   22 ar
  25   14   15 1
  26   14   16 2
  27   15   34 1
  28   18   19 ar
  29   18   35 1
  30   19   20 ar
  31   19   36 1
  32   20   21 ar
  33   20   23 1
  34   21   22 ar
  35   21   26 1
  36   22   37 1
  37   23   24 1
  38   23   27 1
  39   24   25 1
  40   24   38 1
  41   24   39 1
  42   25   26 1
  43   25   40 1
  44   25   41 1
  45   26   42 1
  46   26   43 1
  47   27   44 1
  48   27   45 1
  49   27   46 1

#	End of record

