#	Name: ASD01884977
#	Creating user name:	WinNT
#	Creation time:	15. 06. 2019 19:49

#	Modifying user name:	WinNT
#	Modification time:	15. 06. 2019 19:49

#	Program:	/corina/corina34_cracker 3.40 0067  02.08.2006

@<TRIPOS>MOLECULE
ASD01884977
  54   59    0    0    0
SMALL
NO_CHARGES


@<TRIPOS>ATOM
   1 C1             0.0202     1.4018     0.1564 C.ar    
   2 C2             0.0681     0.0225     0.1542 C.ar    
   3 C3            -1.1099    -0.7141     0.0255 C.ar    
   4 C4            -2.3318    -0.0539    -0.1005 C.ar    
   5 C5            -2.3734     1.3248    -0.0977 C.ar    
   6 C6            -1.2015     2.0562     0.0357 C.ar    
   7 C7            -1.0627    -2.1949     0.0223 C.2     
   8 C8            -1.6553    -2.9143     1.0430 C.2     
   9 C9            -0.4149    -2.8873    -1.0297 C.2     
  10 C10           -0.3735    -4.2328    -1.0310 C.2     
  11 N11           -0.9517    -4.9513    -0.0243 N.pl3   
  12 C12           -1.5943    -4.3178     1.0120 C.2     
  13 C13           -2.3560    -2.2041     2.1725 C.3     
  14 C14           -1.0626    -6.2846     0.2294 C.2     
  15 N15           -1.7256    -6.4189     1.3489 N.2     
  16 N16           -2.0455    -5.2650     1.8200 N.2     
  17 C17           -0.5210    -7.4019    -0.6245 C.3     
  18 C18           -0.5812    -8.8202    -0.0537 C.3     
  19 C19           -1.5240    -8.4111    -1.1871 C.3     
  20 O20           -1.2463     3.4143     0.0381 O.3     
  21 C21           -1.0520     4.0611    -1.1411 C.ar    
  22 C22           -1.1551     5.4428    -1.2110 C.ar    
  23 N23           -0.9679     6.0744    -2.3530 N.ar    
  24 C24           -0.6776     5.4277    -3.4648 C.ar    
  25 C25           -0.5581     4.0503    -3.4743 C.ar    
  26 C26           -0.7412     3.3474    -2.2947 C.ar    
  27 C27           -1.4849     6.2299     0.0311 C.3     
  28 C28           -0.4738     6.2004    -4.7425 C.3     
  29 F29            1.1597     2.1167     0.2813 F       
  30 C30           -3.8431    -2.4994     2.3782 C.3     
  31 C31           -2.8104    -3.0489     3.3644 C.3     
  32 H32            1.0159    -0.4858     0.2516 H       
  33 H33           -3.2450    -0.6217    -0.2006 H       
  34 H34           -3.3197     1.8359    -0.1956 H       
  35 H35            0.0471    -2.3340    -1.8339 H       
  36 H36            0.1229    -4.7503    -1.8386 H       
  37 H37           -2.0114    -1.1902     2.3760 H       
  38 H38            0.3370    -7.1452    -1.2459 H       
  39 H39            0.2373    -9.4968    -0.2994 H       
  40 H40           -1.0126    -8.9451     0.9395 H       
  41 H41           -2.5757    -8.2668    -0.9396 H       
  42 H42           -1.3258    -8.8185    -2.1784 H       
  43 H43           -0.3204     3.5289    -4.3897 H       
  44 H44           -0.6536     2.2712    -2.2727 H       
  45 H45           -0.5625     6.5051     0.5425 H       
  46 H46           -2.0305     7.1322    -0.2447 H       
  47 H47           -2.1002     5.6215     0.6940 H       
  48 H48            0.5773     6.4724    -4.8388 H       
  49 H49           -0.7686     5.5833    -5.5912 H       
  50 H50           -1.0826     7.1042    -4.7215 H       
  51 H51           -4.4767    -1.6799     2.7175 H       
  52 H52           -4.3146    -3.2074     1.6967 H       
  53 H53           -2.6026    -4.1184     3.3316 H       
  54 H54           -2.7647    -2.5909     4.3525 H       
@<TRIPOS>BOND
   1    1    2 ar
   2    1   29 1
   3    1    6 ar
   4    2    3 ar
   5    2   32 1
   6    3    4 ar
   7    3    7 1
   8    4    5 ar
   9    4   33 1
  10    5    6 ar
  11    5   34 1
  12    6   20 1
  13    7    8 2
  14    7    9 1
  15    8   13 1
  16    8   12 1
  17    9   10 2
  18    9   35 1
  19   10   11 1
  20   10   36 1
  21   11   12 1
  22   11   14 1
  23   12   16 2
  24   13   30 1
  25   13   31 1
  26   13   37 1
  27   14   15 2
  28   14   17 1
  29   15   16 1
  30   17   19 1
  31   17   18 1
  32   17   38 1
  33   18   19 1
  34   18   39 1
  35   18   40 1
  36   19   41 1
  37   19   42 1
  38   20   21 1
  39   21   22 ar
  40   21   26 ar
  41   22   23 ar
  42   22   27 1
  43   23   24 ar
  44   24   25 ar
  45   24   28 1
  46   25   26 ar
  47   25   43 1
  48   26   44 1
  49   27   45 1
  50   27   46 1
  51   27   47 1
  52   28   48 1
  53   28   49 1
  54   28   50 1
  55   30   31 1
  56   30   51 1
  57   30   52 1
  58   31   53 1
  59   31   54 1

#	End of record

