#	Name: ASD01150690
#	Creating user name:	WinNT
#	Creation time:	15. 06. 2019 19:04

#	Modifying user name:	WinNT
#	Modification time:	15. 06. 2019 19:04

#	Program:	/corina/corina34_cracker 3.40 0067  02.08.2006

@<TRIPOS>MOLECULE
ASD01150690
  36   39    0    0    0
SMALL
NO_CHARGES


@<TRIPOS>ATOM
   1 C1            -0.0210     1.5080    -0.0042 C.2     
   2 C2            -0.7588     1.3285     1.2975 C.3     
   3 C3             3.7174     3.4669    -0.0643 C.ar    
   4 C4             2.5756     4.2579    -0.1410 C.ar    
   5 C5             1.3009     3.6251    -0.1242 C.ar    
   6 C6             1.2597     2.2163    -0.0278 C.ar    
   7 C7             2.4681     1.5090     0.0452 C.ar    
   8 N8             3.6181     2.1329     0.0257 N.ar    
   9 C9             2.8807     5.6882    -0.2311 C.2     
  10 C10            4.1776     5.9628    -0.2239 C.2     
  11 S11            5.1434     4.4936    -0.0998 S.3     
  12 C12            4.4057     7.4688    -0.3204 C.3     
  13 C13            3.0510     8.0985     0.0604 C.3     
  14 C14            2.0680     6.9788    -0.3345 C.3     
  15 C15            2.4420     0.0057     0.1485 C.3     
  16 O16           -0.3743     5.2948     0.7176 O.3     
  17 C17            0.0641     4.4139    -0.2040 C.2     
  18 C18           -0.8417     4.3837    -1.2246 C.2     
  19 C19           -1.8615     5.2902    -0.8870 C.2     
  20 C20           -1.5365     5.8259     0.3088 C.2     
  21 F21           -1.9814     0.6926     1.0566 F       
  22 F22            0.0105     0.5465     2.1656 F       
  23 F23           -0.9906     2.5798     1.8786 F       
  24 O24           -0.4862     1.0610    -1.0321 O.2     
  25 H25            5.1796     7.7809     0.3809 H       
  26 H26            4.6804     7.7464    -1.3380 H       
  27 H27            3.0018     8.3024     1.1300 H       
  28 H28            2.8647     9.0037    -0.5174 H       
  29 H29            1.7171     7.1251    -1.3560 H       
  30 H30            1.2255     6.9527     0.3566 H       
  31 H31            2.3609    -0.4256    -0.8493 H       
  32 H32            3.3606    -0.3420     0.6210 H       
  33 H33            1.5857    -0.3025     0.7483 H       
  34 H34           -0.7855     3.7804    -2.1186 H       
  35 H35           -2.7396     5.5160    -1.4738 H       
  36 H36           -2.1164     6.5607     0.8475 H       
@<TRIPOS>BOND
   1    1    2 1
   2    1    6 1
   3    1   24 2
   4    2   21 1
   5    2   22 1
   6    2   23 1
   7    3    4 ar
   8    3    8 ar
   9    3   11 1
  10    4    5 ar
  11    4    9 1
  12    5    6 ar
  13    5   17 1
  14    6    7 ar
  15    7    8 ar
  16    7   15 1
  17    9   10 2
  18    9   14 1
  19   10   11 1
  20   10   12 1
  21   12   13 1
  22   12   25 1
  23   12   26 1
  24   13   14 1
  25   13   27 1
  26   13   28 1
  27   14   29 1
  28   14   30 1
  29   15   31 1
  30   15   32 1
  31   15   33 1
  32   16   17 1
  33   16   20 1
  34   17   18 2
  35   18   19 1
  36   18   34 1
  37   19   20 2
  38   19   35 1
  39   20   36 1

#	End of record

