#	Name: ASD01912446
#	Creating user name:	WinNT
#	Creation time:	15. 06. 2019 19:59

#	Modifying user name:	WinNT
#	Modification time:	15. 06. 2019 19:59

#	Program:	/corina/corina34_cracker 3.40 0067  02.08.2006

@<TRIPOS>MOLECULE
ASD01912446
  38   40    0    0    0
SMALL
NO_CHARGES


@<TRIPOS>ATOM
   1 C1            -0.0165     1.3670     0.0096 C.2     
   2 C2             0.0021    -0.0041     0.0020 C.2     
   3 C3             1.3435    -0.5463    -0.0137 C.2     
   4 C4             2.2833     0.3879    -0.0177 C.2     
   5 S5             1.5696     1.9907    -0.0022 S.3     
   6 C6            -1.1797    -0.8128     0.0094 C.1     
   7 N7            -2.1172    -1.4543     0.0153 N.1     
   8 N8            -1.1654     2.1384     0.0194 N.3     
   9 C9            -0.8381     3.5697     0.0256 C.3     
  10 C10           -2.1150     4.3851    -0.2087 C.3     
  11 C11           -3.1459     3.9559     0.8142 C.2     
  12 C12           -3.3895     2.4717     0.9908 C.3     
  13 C13           -2.0316     1.7780     1.1489 C.3     
  14 C14           -3.8158     4.8539     1.5350 C.2     
  15 C15           -4.7855     4.4215     2.4959 C.1     
  16 C16           -5.5805     4.0670     3.2837 C.1     
  17 C17           -6.5502     3.6346     4.2446 C.ar    
  18 C18           -7.2562     4.5755     5.0040 C.ar    
  19 C19           -8.1900     4.1506     5.9289 C.ar    
  20 C20           -8.4283     2.7994     6.1058 C.ar    
  21 C21           -7.7334     1.8622     5.3579 C.ar    
  22 C22           -6.8007     2.2718     4.4250 C.ar    
  23 F23           -7.9726     0.5448     5.5380 F       
  24 F24           -7.0244     5.8954     4.8328 F       
  25 H25            1.5571    -1.6050    -0.0214 H       
  26 H26            3.3449     0.1896    -0.0285 H       
  27 H27           -0.4061     3.8397     0.9892 H       
  28 H28           -0.1207     3.7820    -0.7671 H       
  29 H29           -1.8999     5.4471    -0.0905 H       
  30 H30           -2.4930     4.1956    -1.2133 H       
  31 H31           -3.9948     2.3019     1.8812 H       
  32 H32           -3.9042     2.0769     0.1149 H       
  33 H33           -2.1752     0.6976     1.1666 H       
  34 H34           -1.5659     2.0984     2.0808 H       
  35 H35           -3.6275     5.9081     1.3946 H       
  36 H36           -8.7351     4.8751     6.5157 H       
  37 H37           -9.1593     2.4732     6.8308 H       
  38 H38           -6.2631     1.5404     3.8397 H       
@<TRIPOS>BOND
   1    1    2 2
   2    1    5 1
   3    1    8 1
   4    2    3 1
   5    2    6 1
   6    3    4 2
   7    3   25 1
   8    4    5 1
   9    4   26 1
  10    6    7 3
  11    8    9 1
  12    8   13 1
  13    9   10 1
  14    9   27 1
  15    9   28 1
  16   10   11 1
  17   10   29 1
  18   10   30 1
  19   11   12 1
  20   11   14 2
  21   12   13 1
  22   12   31 1
  23   12   32 1
  24   13   33 1
  25   13   34 1
  26   14   15 1
  27   14   35 1
  28   15   16 3
  29   16   17 1
  30   17   18 ar
  31   17   22 ar
  32   18   19 ar
  33   18   24 1
  34   19   20 ar
  35   19   36 1
  36   20   21 ar
  37   20   37 1
  38   21   22 ar
  39   21   23 1
  40   22   38 1

#	End of record

