#	Name: ASD04220005
#	Creating user name:	WinNT
#	Creation time:	15. 06. 2019 20:48

#	Modifying user name:	WinNT
#	Modification time:	15. 06. 2019 20:48

#	Program:	/corina/corina34_cracker 3.40 0067  02.08.2006

@<TRIPOS>MOLECULE
ASD04220005
  29   30    0    0    0
SMALL
NO_CHARGES


@<TRIPOS>ATOM
   1 C1            -0.0178     1.4620     0.0101 C.3     
   2 N2             0.0021    -0.0041     0.0020 N.3     
   3 C3             0.8587    -0.5072     1.0878 C.3     
   4 C4             2.3164    -0.2174     0.7293 C.3     
   5 C5             2.4723     1.2296     0.3364 C.ar    
   6 C6             3.7480     1.7743     0.3176 C.ar    
   7 C7             3.9390     3.0970    -0.0392 C.ar    
   8 C8             2.8427     3.8836    -0.3816 C.ar    
   9 C9             1.5729     3.3359    -0.3606 C.ar    
  10 C10            1.3860     2.0087    -0.0004 C.ar    
  11 O11            5.1915     3.6266    -0.0550 O.3     
  12 C12            6.2672     2.7591     0.3088 C.3     
  13 O13            3.0195     5.1849    -0.7348 O.3     
  14 C14            1.8481     5.9301    -1.0734 C.3     
  15 H15           -0.5496     1.8194    -0.8717 H       
  16 H16           -0.5327     1.8099     0.9056 H       
  17 H17           -0.9319    -0.3788     0.0752 H       
  18 H18            0.6034    -0.0024     2.0195 H       
  19 H19            0.7156    -1.5820     1.1991 H       
  20 H20            2.9498    -0.4286     1.5908 H       
  21 H21            2.6174    -0.8528    -0.1036 H       
  22 H22            4.5971     1.1620     0.5835 H       
  23 H23            0.7213     3.9449    -0.6259 H       
  24 H24            7.2088     3.3055     0.2546 H       
  25 H25            6.1147     2.3979     1.3258 H       
  26 H26            6.2987     1.9121    -0.3766 H       
  27 H27            1.3520     5.4609    -1.9229 H       
  28 H28            1.1695     5.9476    -0.2206 H       
  29 H29            2.1294     6.9502    -1.3349 H       
@<TRIPOS>BOND
   1    1    2 1
   2    1   10 1
   3    1   15 1
   4    1   16 1
   5    2    3 1
   6    2   17 1
   7    3    4 1
   8    3   18 1
   9    3   19 1
  10    4    5 1
  11    4   20 1
  12    4   21 1
  13    5    6 ar
  14    5   10 ar
  15    6    7 ar
  16    6   22 1
  17    7    8 ar
  18    7   11 1
  19    8    9 ar
  20    8   13 1
  21    9   10 ar
  22    9   23 1
  23   11   12 1
  24   12   24 1
  25   12   25 1
  26   12   26 1
  27   13   14 1
  28   14   27 1
  29   14   28 1
  30   14   29 1

#	End of record

