#	Name: ASD01911281
#	Creating user name:	WinNT
#	Creation time:	15. 06. 2019 19:57

#	Modifying user name:	WinNT
#	Modification time:	15. 06. 2019 19:57

#	Program:	/corina/corina34_cracker 3.40 0067  02.08.2006

@<TRIPOS>MOLECULE
ASD01911281
  41   44    0    0    0
SMALL
NO_CHARGES


@<TRIPOS>ATOM
   1 C1            -0.0189     1.5390     0.0105 C.3     
   2 C2             0.0021    -0.0041     0.0020 C.3     
   3 N3             1.3027    -0.4200    -0.5430 N.am    
   4 C4             2.0751     0.7854    -0.8949 C.3     
   5 C5             1.4884     1.9071    -0.0019 C.3     
   6 C6             1.7200    -1.6925    -0.6949 C.2     
   7 O7             2.8181    -1.9194    -1.1571 O.2     
   8 C8             0.8222    -2.8333    -0.2906 C.3     
   9 C9             3.5361     0.5805    -0.5874 C.2     
  10 N10            4.5453     0.8932    -1.3614 N.2     
  11 C11            5.6537     0.5306    -0.6772 C.2     
  12 N12            5.2564     0.0239     0.4609 N.2     
  13 O13            4.0457     0.0506     0.5290 O.3     
  14 C14            7.0585     0.6793    -1.1329 C.ar    
  15 C15            8.1061     0.2586    -0.3167 C.ar    
  16 C16            9.4113     0.3987    -0.7442 C.ar    
  17 C17            9.6811     0.9556    -1.9806 C.ar    
  18 C18            8.6437     1.3765    -2.7971 C.ar    
  19 C19            7.3333     1.2348    -2.3806 C.ar    
  20 F20            8.9131     1.9209    -4.0039 F       
  21 C21            1.4436    -4.2199    -0.5271 C.3     
  22 C22            0.8256    -4.6393     0.8172 C.3     
  23 C23            0.8725    -3.1539     1.2125 C.3     
  24 H24           -0.5169     1.9228    -0.8798 H       
  25 H25           -0.4998     1.9132     0.9143 H       
  26 H26           -0.1121    -0.3819     1.0180 H       
  27 H27           -0.8023    -0.3822    -0.6289 H       
  28 H28            1.9388     1.0291    -1.9485 H       
  29 H29            1.6475     2.8874    -0.4510 H       
  30 H30            1.9087     1.8665     1.0030 H       
  31 H31           -0.1897    -2.7355    -0.6839 H       
  32 H32            7.8975    -0.1764     0.6495 H       
  33 H33           10.2235     0.0729    -0.1112 H       
  34 H34           10.7037     1.0633    -2.3109 H       
  35 H35            6.5247     1.5628    -3.0169 H       
  36 H36            1.0234    -4.7464    -1.3840 H       
  37 H37            2.5336    -4.2161    -0.5243 H       
  38 H38           -0.1858    -5.0357     0.7280 H       
  39 H39            1.4778    -5.2721     1.4191 H       
  40 H40            1.8063    -2.8587     1.6909 H       
  41 H41           -0.0088    -2.8198     1.7600 H       
@<TRIPOS>BOND
   1    1    2 1
   2    1    5 1
   3    1   24 1
   4    1   25 1
   5    2    3 1
   6    2   26 1
   7    2   27 1
   8    3    4 1
   9    3    6 am
  10    4    5 1
  11    4    9 1
  12    4   28 1
  13    5   29 1
  14    5   30 1
  15    6    7 2
  16    6    8 1
  17    8   21 1
  18    8   23 1
  19    8   31 1
  20    9   10 2
  21    9   13 1
  22   10   11 1
  23   11   12 2
  24   11   14 1
  25   12   13 1
  26   14   15 ar
  27   14   19 ar
  28   15   16 ar
  29   15   32 1
  30   16   17 ar
  31   16   33 1
  32   17   18 ar
  33   17   34 1
  34   18   19 ar
  35   18   20 1
  36   19   35 1
  37   21   22 1
  38   21   36 1
  39   21   37 1
  40   22   23 1
  41   22   38 1
  42   22   39 1
  43   23   40 1
  44   23   41 1

#	End of record

