#	Name: ASD00840141
#	Creating user name:	WinNT
#	Creation time:	15. 06. 2019 18:37

#	Modifying user name:	WinNT
#	Modification time:	15. 06. 2019 18:37

#	Program:	/corina/corina34_cracker 3.40 0067  02.08.2006

@<TRIPOS>MOLECULE
ASD00840141
  35   37    0    0    0
SMALL
NO_CHARGES


@<TRIPOS>ATOM
   1 N1            -0.0161     1.3391     0.0094 N.am    
   2 C2             0.0021    -0.0041     0.0020 C.2     
   3 C3             1.4545    -0.4308    -0.0141 C.3     
   4 C4             2.2193     0.8733    -0.0144 C.ar    
   5 C5             3.5599     1.1658    -0.0256 C.ar    
   6 C6             3.9812     2.4999    -0.0225 C.ar    
   7 C7             3.0260     3.5240    -0.0079 C.ar    
   8 C8             1.6825     3.2173     0.0033 C.ar    
   9 C9             1.2639     1.8862     0.0001 C.ar    
  10 C10            5.3778     2.8158    -0.0337 C.1     
  11 N11            6.4858     3.0665    -0.0425 N.1     
  12 O12           -0.9639    -0.7374     0.0077 O.2     
  13 O13            1.7654    -1.1936     1.1535 O.3     
  14 F14            3.4225     4.8155    -0.0043 F       
  15 C15            1.5561    -0.6632    -2.5158 C.ar    
  16 C16            1.7588    -1.2219    -1.2601 C.ar    
  17 C17            2.2443    -2.5145    -1.1689 C.ar    
  18 C18            2.5112    -3.2060    -2.3427 C.ar    
  19 C19            2.2861    -2.5882    -3.5565 C.ar    
  20 N20            1.8223    -1.3540    -3.6116 N.ar    
  21 O21            1.0752     0.6013    -2.6188 O.3     
  22 C22            0.8887     1.1190    -3.9376 C.3     
  23 C23            0.3442     2.5463    -3.8530 C.3     
  24 H24           -0.8293     1.8680     0.0162 H       
  25 H25            4.2880     0.3682    -0.0365 H       
  26 H26            0.9502     4.0110     0.0149 H       
  27 H27            1.2574    -2.0123     1.2353 H       
  28 H28            2.4120    -2.9748    -0.2064 H       
  29 H29            2.8912    -4.2163    -2.3067 H       
  30 H30            2.4925    -3.1216    -4.4727 H       
  31 H31            1.8431     1.1248    -4.4640 H       
  32 H32            0.1799     0.4911    -4.4775 H       
  33 H33           -0.6103     2.5404    -3.3266 H       
  34 H34            1.0530     3.1741    -3.3131 H       
  35 H35            0.2019     2.9412    -4.8589 H       
@<TRIPOS>BOND
   1    1    2 am
   2    1    9 1
   3    1   24 1
   4    2    3 1
   5    2   12 2
   6    3    4 1
   7    3   13 1
   8    3   16 1
   9    4    5 ar
  10    4    9 ar
  11    5    6 ar
  12    5   25 1
  13    6    7 ar
  14    6   10 1
  15    7    8 ar
  16    7   14 1
  17    8    9 ar
  18    8   26 1
  19   10   11 3
  20   13   27 1
  21   15   16 ar
  22   15   20 ar
  23   15   21 1
  24   16   17 ar
  25   17   18 ar
  26   17   28 1
  27   18   19 ar
  28   18   29 1
  29   19   20 ar
  30   19   30 1
  31   21   22 1
  32   22   23 1
  33   22   31 1
  34   22   32 1
  35   23   33 1
  36   23   34 1
  37   23   35 1

#	End of record

