#	Name: ASD00840875
#	Creating user name:	WinNT
#	Creation time:	15. 06. 2019 18:40

#	Modifying user name:	WinNT
#	Modification time:	15. 06. 2019 18:40

#	Program:	/corina/corina34_cracker 3.40 0067  02.08.2006

@<TRIPOS>MOLECULE
ASD00840875
  88   93    0    0    0
SMALL
NO_CHARGES


@<TRIPOS>ATOM
   1 F1             6.0749    -1.9626    -2.0085 F       
   2 N2             1.1032     1.4620    -0.7004 N.ar    
   3 C3             1.3544     0.1695    -0.8231 C.ar    
   4 C4             1.2593    -0.6774     0.2740 C.ar    
   5 C5             0.8972    -0.1509     1.5014 C.ar    
   6 C6             0.6419     1.2110     1.5884 C.ar    
   7 C7             0.7559     1.9931     0.4566 C.ar    
   8 C8             1.5460    -2.1497     0.1293 C.3     
   9 C9             1.2498    -2.8772     1.4232 C.2     
  10 C10            0.7273    -2.7434    -1.0188 C.3     
  11 C11           -0.7345    -2.4520    -0.7965 C.2     
  12 N12           -1.6589    -2.9678    -1.6307 N.am    
  13 O13           -1.0790    -1.7532     0.1330 O.2     
  14 C14           -3.0789    -2.6075    -1.4996 C.3     
  15 C15           -3.5959    -2.1590    -2.8706 C.3     
  16 N16           -3.3090    -3.2024    -3.8639 N.3     
  17 C17           -1.8626    -3.4061    -4.0202 C.3     
  18 C18           -1.2737    -3.9011    -2.7002 C.3     
  19 N19           -3.9324    -2.8922    -5.1404 N.3     
  20 C20           -3.6454    -3.9361    -6.1341 C.3     
  21 C21           -4.3826    -3.6138    -7.4361 C.3     
  22 N22           -3.9560    -2.2947    -7.9238 N.3     
  23 C23           -4.2430    -1.2509    -6.9301 C.3     
  24 C24           -3.5059    -1.5732    -5.6281 C.3     
  25 H25           -2.9777    -2.2996    -8.1709 H       
  26 O26            0.1735    -2.9509     1.9776 O.2     
  27 N27            2.4020    -3.4263     1.8424 N.am    
  28 C28            3.0232    -2.3821    -0.0944 C.ar    
  29 C29            3.4631    -3.1554     0.9751 C.ar    
  30 C30            3.8900    -1.9836    -1.0880 C.ar    
  31 C31            5.2232    -2.3516    -1.0346 C.ar    
  32 C32            5.6834    -3.1289     0.0332 C.ar    
  33 C33            4.8004    -3.5292     1.0356 C.ar    
  34 C34            2.2430    -6.0030     2.7963 C.ar    
  35 C35            0.9881    -6.3865     2.3455 C.ar    
  36 C36            3.2559    -6.9373     2.9019 C.ar    
  37 C37            3.0220    -8.2549     2.5586 C.ar    
  38 C38            1.7684    -8.6435     2.1071 C.ar    
  39 C39            0.7507    -7.7084     2.0008 C.ar    
  40 O40            1.5387    -9.9398     1.7700 O.3     
  41 O41           -0.0076    -5.4675     2.2423 O.3     
  42 C42           -1.2738    -5.9329     1.7711 C.3     
  43 C43            2.6330   -10.8489     1.9049 C.3     
  44 S44            2.5476    -4.3220     3.2277 S.o2    
  45 O45            3.9136    -4.2475     3.6120 O.2     
  46 O46            1.4788    -3.9255     4.0761 O.2     
  47 O47            1.7080    -0.3345    -2.0322 O.3     
  48 C48            2.2179    -0.1458    -4.3870 C.3     
  49 C49            1.6799     0.5641    -3.1430 C.3     
  50 C50            7.0610    -3.5143     0.0967 C.1     
  51 N51            8.1540    -3.8201     0.1470 N.1     
  52 H52            0.8148    -0.7849     2.3718 H       
  53 H53            0.3567     1.6537     2.5313 H       
  54 H54            0.5587     3.0531     0.5190 H       
  55 H55            1.0473    -2.2988    -1.9611 H       
  56 H56            0.8813    -3.8219    -1.0551 H       
  57 H57           -3.6465    -3.4738    -1.1597 H       
  58 H58           -3.1852    -1.7926    -0.7835 H       
  59 H59           -4.6720    -1.9936    -2.8172 H       
  60 H60           -3.0993    -1.2333    -3.1615 H       
  61 H61           -1.6816    -4.1452    -4.8006 H       
  62 H62           -1.3901    -2.4631    -4.2952 H       
  63 H63           -0.1872    -3.9439    -2.7772 H       
  64 H64           -1.6668    -4.8919    -2.4725 H       
  65 H65           -2.5726    -3.9730    -6.3232 H       
  66 H66           -3.9816    -4.9012    -5.7552 H       
  67 H67           -4.1480    -4.3713    -8.1839 H       
  68 H68           -5.4570    -3.6037    -7.2527 H       
  69 H69           -3.9068    -0.2857    -7.3090 H       
  70 H70           -5.3159    -1.2139    -6.7410 H       
  71 H71           -3.7404    -0.8157    -4.8803 H       
  72 H72           -2.4315    -1.5833    -5.8114 H       
  73 H73            3.5288    -1.3835    -1.9100 H       
  74 H74            5.1561    -4.1295     1.8600 H       
  75 H75            4.2320    -6.6368     3.2530 H       
  76 H76            3.8153    -8.9830     2.6413 H       
  77 H77           -0.2255    -8.0090     1.6500 H       
  78 H78           -1.1578    -6.3525     0.7718 H       
  79 H79           -1.6527    -6.7007     2.4457 H       
  80 H80           -1.9769    -5.1007     1.7364 H       
  81 H81            3.4568   -10.5226     1.2700 H       
  82 H82            2.9617   -10.8702     2.9440 H       
  83 H83            2.3154   -11.8471     1.6037 H       
  84 H84            1.5482    -0.9620    -4.6577 H       
  85 H85            2.2785     0.5635    -5.2124 H       
  86 H86            3.2104    -0.5446    -4.1770 H       
  87 H87            0.6544     0.8865    -3.3236 H       
  88 H88            2.3005     1.4328    -2.9234 H       
@<TRIPOS>BOND
   1    1   31 1
   2    2    3 ar
   3    2    7 ar
   4    3    4 ar
   5    3   47 1
   6    4    5 ar
   7    4    8 1
   8    5    6 ar
   9    5   52 1
  10    6    7 ar
  11    6   53 1
  12    7   54 1
  13    8    9 1
  14    8   10 1
  15    8   28 1
  16    9   26 2
  17    9   27 am
  18   10   11 1
  19   10   55 1
  20   10   56 1
  21   11   12 am
  22   11   13 2
  23   12   14 1
  24   12   18 1
  25   14   15 1
  26   14   57 1
  27   14   58 1
  28   15   16 1
  29   15   59 1
  30   15   60 1
  31   16   17 1
  32   16   19 1
  33   17   18 1
  34   17   61 1
  35   17   62 1
  36   18   63 1
  37   18   64 1
  38   19   20 1
  39   19   24 1
  40   20   21 1
  41   20   65 1
  42   20   66 1
  43   21   22 1
  44   21   67 1
  45   21   68 1
  46   22   23 1
  47   22   25 1
  48   23   24 1
  49   23   69 1
  50   23   70 1
  51   24   71 1
  52   24   72 1
  53   27   44 am
  54   27   29 1
  55   28   29 ar
  56   28   30 ar
  57   29   33 ar
  58   30   31 ar
  59   30   73 1
  60   31   32 ar
  61   32   33 ar
  62   32   50 1
  63   33   74 1
  64   34   35 ar
  65   34   36 ar
  66   34   44 1
  67   35   41 1
  68   35   39 ar
  69   36   37 ar
  70   36   75 1
  71   37   38 ar
  72   37   76 1
  73   38   39 ar
  74   38   40 1
  75   39   77 1
  76   40   43 1
  77   41   42 1
  78   42   78 1
  79   42   79 1
  80   42   80 1
  81   43   81 1
  82   43   82 1
  83   43   83 1
  84   44   45 2
  85   44   46 2
  86   47   49 1
  87   48   49 1
  88   48   84 1
  89   48   85 1
  90   48   86 1
  91   49   87 1
  92   49   88 1
  93   50   51 3

#	End of record

