#	Name: ASD05143057
#	Creating user name:	WinNT
#	Creation time:	15. 06. 2019 20:57

#	Modifying user name:	WinNT
#	Modification time:	15. 06. 2019 20:57

#	Program:	/corina/corina34_cracker 3.40 0067  02.08.2006

@<TRIPOS>MOLECULE
ASD05143057
 142  145    0    0    0
SMALL
NO_CHARGES


@<TRIPOS>ATOM
   1 C1            -2.1160     5.5379     7.6129 C.2     
   2 C2            -1.6296     4.8169     8.8436 C.3     
   3 N3            -1.2289     6.0595     6.7427 N.am    
   4 O4            -3.3058     5.6444     7.4030 O.2     
   5 C5            -1.7017     6.7604     5.5463 C.3     
   6 C6            -2.5387     5.8052     4.6930 C.3     
   7 C7            -2.5464     7.9393     5.9557 C.2     
   8 C8            -1.6499     4.6730     4.1741 C.3     
   9 C9            -2.4868     3.7178     3.3209 C.3     
  10 N10           -1.6358     2.6338     2.8240 N.pl3   
  11 C11           -2.1718     1.6482     2.0294 C.2     
  12 N12           -1.3732     0.6309     1.5631 N.pl3   
  13 N13           -3.4372     1.6783     1.7180 N.2     
  14 O14           -3.0369     7.9781     7.0642 O.2     
  15 N15           -2.7567     8.9507     5.0899 N.am    
  16 C16           -3.5778    10.0968     5.4879 C.3     
  17 C17           -2.6717    11.2894     5.8002 C.3     
  18 C18           -1.5176    10.8335     6.6949 C.3     
  19 C19           -0.3772    10.3494     5.8370 C.2     
  20 O20           -0.5813     9.6073     4.8997 O.2     
  21 N21            0.8909    10.7621     6.1342 N.am    
  22 C22            1.9533    10.2360     5.2471 C.3     
  23 C23            2.1071    11.1804     4.0533 C.3     
  24 C24            2.7692    10.4327     2.8942 C.3     
  25 C25            3.7308    11.3720     2.1635 C.3     
  26 N26            3.6795    11.0759     0.7177 N.am    
  27 C27            5.1324    11.1565     2.6736 C.2     
  28 N28            5.5208    11.7192     3.8351 N.am    
  29 O29            5.9109    10.4767     2.0390 O.2     
  30 C30            2.8561    11.8565    -0.0340 C.2     
  31 O31            2.2143    12.7470     0.4819 O.2     
  32 C32            2.7522    11.6007    -1.5155 C.3     
  33 N33            1.5398    12.2802    -2.0271 N.am    
  34 C34            3.9900    12.1581    -2.2212 C.3     
  35 C35            0.4846    11.4598    -2.3101 C.2     
  36 O36            0.5727    10.2613    -2.1471 O.2     
  37 C37           -0.7911    12.0725    -2.8283 C.3     
  38 N38           -1.9206    11.1872    -2.4815 N.am    
  39 C39           -0.9990    13.4449    -2.1846 C.3     
  40 C40           -3.0239    11.7855    -1.9540 C.2     
  41 O41           -3.0501    12.9858    -1.7825 O.2     
  42 C42           -4.2123    10.9347    -1.5866 C.3     
  43 C43            3.9420    11.7934    -3.6826 C.2     
  44 C44            3.2465    12.5286    -4.7417 C.ar    
  45 C45            3.4833    11.8147    -5.9304 C.ar    
  46 N46            4.2651    10.7295    -5.6036 N.pl3   
  47 C47            4.5331    10.7365    -4.2618 C.2     
  48 C48            2.4730    13.6908    -4.7693 C.ar    
  49 C49            1.9493    14.1290    -5.9527 C.ar    
  50 C50            2.1797    13.4277    -7.1285 C.ar    
  51 C51            2.9405    12.2794    -7.1241 C.ar    
  52 N52           -4.7975    11.4544    -0.3296 N.am    
  53 C53           -3.7635     9.4863    -1.3834 C.3     
  54 C54           -4.9647     8.6243    -1.0919 C.ar    
  55 C55           -5.9973     8.5490    -2.0098 C.ar    
  56 C56           -7.0997     7.7616    -1.7496 C.ar    
  57 C57           -7.1719     7.0395    -0.5567 C.ar    
  58 C58           -6.1262     7.1201     0.3652 C.ar    
  59 C59           -5.0274     7.9073     0.0898 C.ar    
  60 C60           -4.5142    10.4585     4.3638 C.2     
  61 O61           -5.7130    10.3318     4.4970 O.2     
  62 C62           -1.0145    13.2969    -0.6619 C.3     
  63 C63           -1.3629    14.6423    -0.0222 C.3     
  64 N64           -1.3777    14.5006     1.4359 N.pl3   
  65 C65           -1.6681    15.5854     2.2291 C.2     
  66 N66           -1.6819    15.4524     3.5974 N.pl3   
  67 N67           -1.9301    16.7399     1.6838 N.2     
  68 N68           -3.9951    10.9291     3.1966 N.am    
  69 C69           -4.9612    11.2670     2.1322 C.3     
  70 C70           -4.4068    10.8074     0.8085 C.2     
  71 O71           -3.6280     9.8793     0.7543 O.2     
  72 C72           -8.3134     6.2204    -0.2797 C.1     
  73 N73           -9.2189     5.5707    -0.0599 N.1     
  74 C74           -5.1786    12.7812     2.0991 C.3     
  75 O75           -3.9616    13.4290     1.7231 O.3     
  76 H76           -1.0333     5.4974     9.4515 H       
  77 H77           -2.4849     4.4677     9.4220 H       
  78 H78           -1.0187     3.9642     8.5475 H       
  79 H79           -0.2773     5.9708     6.9085 H       
  80 H80           -0.8464     7.1096     4.9679 H       
  81 H81           -3.3431     5.3873     5.2983 H       
  82 H82           -2.9637     6.3491     3.8495 H       
  83 H83           -0.8455     5.0909     3.5688 H       
  84 H84           -1.2249     4.1291     5.0177 H       
  85 H85           -3.2912     3.2999     3.9262 H       
  86 H86           -2.9119     4.2618     2.4773 H       
  87 H87           -0.6942     2.6114     3.0557 H       
  88 H88           -0.4315     0.6085     1.7948 H       
  89 H89           -1.7514    -0.0645     1.0024 H       
  90 H90           -3.8154     0.9829     1.1574 H       
  91 H91           -2.3644     8.9197     4.2034 H       
  92 H92           -4.1569     9.8385     6.3745 H       
  93 H93           -2.2724    11.6953     4.8707 H       
  94 H94           -3.2480    12.0586     6.3144 H       
  95 H95           -1.1813    11.6695     7.3082 H       
  96 H96           -1.8564    10.0229     7.3400 H       
  97 H97            1.0818    11.3587     6.8748 H       
  98 H98            2.8941    10.1830     5.7950 H       
  99 H99            1.6764     9.2426     4.8942 H       
 100 H100           1.1247    11.5361     3.7424 H       
 101 H101           2.7274    12.0298     4.3394 H       
 102 H102           3.3218     9.5771     3.2823 H       
 103 H103           2.0030    10.0860     2.2007 H       
 104 H104           3.4325    12.4062     2.3354 H       
 105 H105           4.2051    10.3619     0.3242 H       
 106 H106           4.8981    12.2629     4.3427 H       
 107 H107           6.4229    11.5805     4.1635 H       
 108 H108           2.6753    10.5288    -1.6974 H       
 109 H109           1.4979    13.2411    -2.1529 H       
 110 H110           4.0096    13.2430    -2.1179 H       
 111 H111           4.8872    11.7340    -1.7702 H       
 112 H112          -0.7308    12.1804    -3.9113 H       
 113 H113          -1.8787    10.2283    -2.6220 H       
 114 H114          -0.1865    14.1101    -2.4768 H       
 115 H115          -1.9487    13.8627    -2.5187 H       
 116 H116          -4.9555    10.9815    -2.3826 H       
 117 H117           4.5819    10.0616    -6.2316 H       
 118 H118           5.1258     9.9969    -3.7440 H       
 119 H119           2.2891    14.2411    -3.8584 H       
 120 H120           1.3511    15.0280    -5.9735 H       
 121 H121           1.7587    13.7865    -8.0561 H       
 122 H122           3.1142    11.7411    -8.0442 H       
 123 H123          -5.4150    12.2023    -0.3152 H       
 124 H124          -3.2703     9.1285    -2.2873 H       
 125 H125          -3.0680     9.4355    -0.5457 H       
 126 H126          -5.9403     9.1083    -2.9319 H       
 127 H127          -7.9052     7.7040    -2.4667 H       
 128 H128          -6.1759     6.5645     1.2899 H       
 129 H129          -4.2179     7.9705     0.8019 H       
 130 H130          -1.7602    12.5549    -0.3765 H       
 131 H131          -0.0315    12.9749    -0.3181 H       
 132 H132          -0.6172    15.3843    -0.3076 H       
 133 H133          -2.3459    14.9643    -0.3659 H       
 134 H134          -1.1827    13.6414     1.8416 H       
 135 H135          -1.4869    14.5932     4.0032 H       
 136 H136          -1.8868    16.2178     4.1570 H       
 137 H137          -2.1349    17.5053     2.2434 H       
 138 H138          -3.0394    11.0371     3.0707 H       
 139 H139          -5.9087    10.7642     2.3258 H       
 140 H140          -5.9566    13.0207     1.3743 H       
 141 H141          -5.4836    13.1261     3.0870 H       
 142 H142          -4.0258    14.3930     1.6815 H       
@<TRIPOS>BOND
   1    1    2 1
   2    1    3 am
   3    1    4 2
   4    2   76 1
   5    2   77 1
   6    2   78 1
   7    3    5 1
   8    3   79 1
   9    5    6 1
  10    5    7 1
  11    5   80 1
  12    6    8 1
  13    6   81 1
  14    6   82 1
  15    7   14 2
  16    7   15 am
  17    8    9 1
  18    8   83 1
  19    8   84 1
  20    9   10 1
  21    9   85 1
  22    9   86 1
  23   10   11 1
  24   10   87 1
  25   11   12 1
  26   11   13 2
  27   12   88 1
  28   12   89 1
  29   13   90 1
  30   15   16 1
  31   15   91 1
  32   16   17 1
  33   16   60 1
  34   16   92 1
  35   17   18 1
  36   17   93 1
  37   17   94 1
  38   18   19 1
  39   18   95 1
  40   18   96 1
  41   19   20 2
  42   19   21 am
  43   21   22 1
  44   21   97 1
  45   22   23 1
  46   22   98 1
  47   22   99 1
  48   23   24 1
  49   23  100 1
  50   23  101 1
  51   24   25 1
  52   24  102 1
  53   24  103 1
  54   25   26 1
  55   25   27 1
  56   25  104 1
  57   26   30 am
  58   26  105 1
  59   27   28 am
  60   27   29 2
  61   28  106 1
  62   28  107 1
  63   30   31 2
  64   30   32 1
  65   32   33 1
  66   32   34 1
  67   32  108 1
  68   33   35 am
  69   33  109 1
  70   34   43 1
  71   34  110 1
  72   34  111 1
  73   35   36 2
  74   35   37 1
  75   37   38 1
  76   37   39 1
  77   37  112 1
  78   38   40 am
  79   38  113 1
  80   39   62 1
  81   39  114 1
  82   39  115 1
  83   40   41 2
  84   40   42 1
  85   42   52 1
  86   42   53 1
  87   42  116 1
  88   43   44 1
  89   43   47 2
  90   44   45 ar
  91   44   48 ar
  92   45   46 1
  93   45   51 ar
  94   46   47 1
  95   46  117 1
  96   47  118 1
  97   48   49 ar
  98   48  119 1
  99   49   50 ar
 100   49  120 1
 101   50   51 ar
 102   50  121 1
 103   51  122 1
 104   52   70 am
 105   52  123 1
 106   53   54 1
 107   53  124 1
 108   53  125 1
 109   54   55 ar
 110   54   59 ar
 111   55   56 ar
 112   55  126 1
 113   56   57 ar
 114   56  127 1
 115   57   58 ar
 116   57   72 1
 117   58   59 ar
 118   58  128 1
 119   59  129 1
 120   60   61 2
 121   60   68 am
 122   62   63 1
 123   62  130 1
 124   62  131 1
 125   63   64 1
 126   63  132 1
 127   63  133 1
 128   64   65 1
 129   64  134 1
 130   65   66 1
 131   65   67 2
 132   66  135 1
 133   66  136 1
 134   67  137 1
 135   68   69 1
 136   68  138 1
 137   69   70 1
 138   69   74 1
 139   69  139 1
 140   70   71 2
 141   72   73 3
 142   74   75 1
 143   74  140 1
 144   74  141 1
 145   75  142 1

#	End of record

