#	Name: ASD08070511
#	Creating user name:	WinNT
#	Creation time:	15. 06. 2019 21:15

#	Modifying user name:	WinNT
#	Modification time:	15. 06. 2019 21:15

#	Program:	/corina/corina34_cracker 3.40 0067  02.08.2006

@<TRIPOS>MOLECULE
ASD08070511
  43   44    0    0    0
SMALL
NO_CHARGES


@<TRIPOS>ATOM
   1 C1            -0.0184     1.5028     0.0103 C.2     
   2 C2             0.0021    -0.0041     0.0020 C.3     
   3 C3            -0.7241    -0.5171    -1.2431 C.3     
   4 C4            -0.8126    -2.0436    -1.1892 C.3     
   5 C5            -1.6900    -2.4622    -0.0077 C.3     
   6 O6             1.0197     2.1211     0.0037 O.2     
   7 O7            -1.1898     2.1580     0.0194 O.3     
   8 C8             2.0717    -0.5994     1.1419 C.2     
   9 O9             1.5350    -0.3231     2.1981 O.2     
  10 N10            1.3897    -0.4735    -0.0138 N.am    
  11 O11            4.1582    -1.4040     0.0180 O.3     
  12 C12            3.4639    -1.0704     1.1261 C.2     
  13 C13            4.2457    -1.2351     2.2243 C.2     
  14 C14            5.5374    -1.7144     1.7338 C.ar    
  15 C15            5.4075    -1.7965     0.3346 C.ar    
  16 C16            6.7424    -2.0649     2.3468 C.ar    
  17 C17            7.7934    -2.4874     1.5824 C.ar    
  18 C18            7.6710    -2.5697     0.2023 C.ar    
  19 C19            6.4903    -2.2286    -0.4219 C.ar    
  20 C20            3.8604    -0.9755     3.6579 C.3     
  21 C21           -1.4263    -2.5652    -2.4901 C.3     
  22 C22           -1.1335     3.6089     0.0270 C.3     
  23 H23           -0.4983    -0.3791     0.8948 H       
  24 H24           -1.7288    -0.0959    -1.2772 H       
  25 H25           -0.1736    -0.2164    -2.1345 H       
  26 H26            0.1866    -2.4614    -1.0657 H       
  27 H27           -1.7530    -3.5497     0.0307 H       
  28 H28           -1.2528    -2.0906     0.9191 H       
  29 H29           -2.6891    -2.0444    -0.1312 H       
  30 H30            1.8177    -0.6938    -0.8559 H       
  31 H31            6.8432    -2.0020     3.4203 H       
  32 H32            8.7257    -2.7587     2.0552 H       
  33 H33            8.5101    -2.9050    -0.3891 H       
  34 H34            6.4068    -2.2973    -1.4965 H       
  35 H35            3.4405    -1.8832     4.0913 H       
  36 H36            4.7435    -0.6778     4.2233 H       
  37 H37            3.1186    -0.1778     3.6961 H       
  38 H38           -0.8012    -2.2670    -3.3318 H       
  39 H39           -1.4893    -3.6527    -2.4517 H       
  40 H40           -2.4254    -2.1474    -2.6135 H       
  41 H41           -2.1463     4.0118     0.0340 H       
  42 H42           -0.6017     3.9472     0.9164 H       
  43 H43           -0.6102     3.9569    -0.8636 H       
@<TRIPOS>BOND
   1    1    2 1
   2    1    6 2
   3    1    7 1
   4    2    3 1
   5    2   10 1
   6    2   23 1
   7    3    4 1
   8    3   24 1
   9    3   25 1
  10    4    5 1
  11    4   21 1
  12    4   26 1
  13    5   27 1
  14    5   28 1
  15    5   29 1
  16    7   22 1
  17    8    9 2
  18    8   10 am
  19    8   12 1
  20   10   30 1
  21   11   12 1
  22   11   15 1
  23   12   13 2
  24   13   14 1
  25   13   20 1
  26   14   15 ar
  27   14   16 ar
  28   15   19 ar
  29   16   17 ar
  30   16   31 1
  31   17   18 ar
  32   17   32 1
  33   18   19 ar
  34   18   33 1
  35   19   34 1
  36   20   35 1
  37   20   36 1
  38   20   37 1
  39   21   38 1
  40   21   39 1
  41   21   40 1
  42   22   41 1
  43   22   42 1
  44   22   43 1

#	End of record

