#	Name: ASD01411176
#	Creating user name:	WinNT
#	Creation time:	15. 06. 2019 19:19

#	Modifying user name:	WinNT
#	Modification time:	15. 06. 2019 19:19

#	Program:	/corina/corina34_cracker 3.40 0067  02.08.2006

@<TRIPOS>MOLECULE
ASD01411176
  71   74    0    0    0
SMALL
NO_CHARGES


@<TRIPOS>ATOM
   1 C1             0.4628     2.1233     0.6245 C.ar    
   2 C2             0.5567     0.7566     0.5410 C.ar    
   3 C3             1.7902     0.1140     0.6255 C.ar    
   4 C4             2.9393     0.8723     0.8036 C.ar    
   5 C5             2.8507     2.2478     0.8907 C.ar    
   6 C6             1.6177     2.8800     0.8008 C.ar    
   7 P7            -0.9172    -0.2854     0.3219 P.3     
   8 N8            -0.4535    -1.8374     0.6225 N.2     
   9 C9             0.8087    -2.1312     0.6911 C.2     
  10 N10            1.8532    -1.2743     0.5241 N.pl3   
  11 C11            1.1461    -3.5377     0.9802 C.2     
  12 C12            0.2457    -4.5396     1.1782 C.2     
  13 C13            1.0475    -5.7939     1.4395 C.3     
  14 N14            2.4581    -5.3942     1.3678 N.am    
  15 C15            2.5029    -4.0783     1.0933 C.2     
  16 C16            3.6136    -6.2749     1.5557 C.3     
  17 C17            3.9519    -6.9621     0.2312 C.3     
  18 C18            5.0678    -7.9841     0.4574 C.3     
  19 C19            4.5701    -9.0828     1.3987 C.3     
  20 C20            5.4707    -8.6041    -0.8821 C.3     
  21 C21            6.2786    -7.2875     1.0817 C.3     
  22 O22           -1.9710     0.1217     1.2780 O.2     
  23 O23           -1.4624    -0.1568    -1.1876 O.3     
  24 O24           -1.0941    -4.4338     1.1478 O.3     
  25 O25            3.5236    -3.4294     0.9618 O.2     
  26 N26            1.5364     4.2744     0.8868 N.am    
  27 S27            0.9676     4.9869     2.2693 S.o2    
  28 O28            1.0292     6.3801     1.9964 O.2     
  29 O29           -0.2754     4.3418     2.5101 O.2     
  30 C30            2.1772     4.5336     3.5428 C.3     
  31 C31           -1.8868     1.0824    -1.7588 C.3     
  32 C32           -2.3424     0.8497    -3.2007 C.3     
  33 C33            0.7259    -6.3449     2.8301 C.3     
  34 C34            1.0631    -5.3089     3.8713 C.2     
  35 C35            2.0217    -3.7936     5.6254 C.2     
  36 C36            0.2433    -4.3429     4.2885 C.2     
  37 S37            2.5951    -5.1931     4.7275 S.3     
  38 C38            0.7727    -3.5060     5.2557 C.2     
  39 H39           -0.4993     2.6082     0.5494 H       
  40 H40            3.9016     0.3870     0.8744 H       
  41 H41            3.7462     2.8355     1.0293 H       
  42 H42            2.7166    -1.6642     0.3159 H       
  43 H43            0.8305    -6.5436     0.6785 H       
  44 H44            4.4686    -5.6864     1.8884 H       
  45 H45            3.3774    -7.0291     2.3064 H       
  46 H46            3.0664    -7.4697    -0.1513 H       
  47 H47            4.2834    -6.2160    -0.4909 H       
  48 H48            3.6455    -9.5062     1.0062 H       
  49 H49            5.3247    -9.8656     1.4746 H       
  50 H50            4.3854    -8.6593     2.3859 H       
  51 H51            5.8253    -7.8214    -1.5527 H       
  52 H52            6.2657    -9.3322    -0.7210 H       
  53 H53            4.6082    -9.1004    -1.3269 H       
  54 H54            5.9915    -6.8458     2.0360 H       
  55 H55            7.0735    -8.0156     1.2428 H       
  56 H56            6.6331    -6.5048     0.4111 H       
  57 H57           -1.4614    -3.5578     0.9666 H       
  58 H58            1.8133     4.8236     0.1367 H       
  59 H59            3.1404     4.9858     3.3065 H       
  60 H60            1.8352     4.8934     4.5132 H       
  61 H61            2.2829     3.4492     3.5740 H       
  62 H62           -2.7152     1.4860    -1.1766 H       
  63 H63           -1.0576     1.7897    -1.7494 H       
  64 H64           -1.5140     0.4461    -3.7829 H       
  65 H65           -3.1717     0.1424    -3.2101 H       
  66 H66           -2.6662     1.7949    -3.6365 H       
  67 H67           -0.3353    -6.5868     2.8886 H       
  68 H68            1.3141    -7.2449     3.0093 H       
  69 H69            2.5927    -3.2514     6.3645 H       
  70 H70           -0.7575    -4.2227     3.9009 H       
  71 H71            0.2170    -2.6819     5.6782 H       
@<TRIPOS>BOND
   1    1    2 ar
   2    1    6 ar
   3    1   39 1
   4    2    3 ar
   5    2    7 1
   6    3    4 ar
   7    3   10 1
   8    4    5 ar
   9    4   40 1
  10    5    6 ar
  11    5   41 1
  12    6   26 1
  13    7    8 1
  14    7   22 2
  15    7   23 1
  16    8    9 2
  17    9   10 1
  18    9   11 1
  19   10   42 1
  20   11   12 2
  21   11   15 1
  22   12   13 1
  23   12   24 1
  24   13   14 1
  25   13   33 1
  26   13   43 1
  27   14   15 am
  28   14   16 1
  29   15   25 2
  30   16   17 1
  31   16   44 1
  32   16   45 1
  33   17   18 1
  34   17   46 1
  35   17   47 1
  36   18   19 1
  37   18   20 1
  38   18   21 1
  39   19   48 1
  40   19   49 1
  41   19   50 1
  42   20   51 1
  43   20   52 1
  44   20   53 1
  45   21   54 1
  46   21   55 1
  47   21   56 1
  48   23   31 1
  49   24   57 1
  50   26   27 am
  51   26   58 1
  52   27   28 2
  53   27   29 2
  54   27   30 1
  55   30   59 1
  56   30   60 1
  57   30   61 1
  58   31   32 1
  59   31   62 1
  60   31   63 1
  61   32   64 1
  62   32   65 1
  63   32   66 1
  64   33   34 1
  65   33   67 1
  66   33   68 1
  67   34   37 1
  68   34   36 2
  69   35   38 2
  70   35   37 1
  71   35   69 1
  72   36   38 1
  73   36   70 1
  74   38   71 1

#	End of record

