#	Name: ASD04590641
#	Creating user name:	WinNT
#	Creation time:	15. 06. 2019 20:51

#	Modifying user name:	WinNT
#	Modification time:	15. 06. 2019 20:51

#	Program:	/corina/corina34_cracker 3.40 0067  02.08.2006

@<TRIPOS>MOLECULE
ASD04590641
  57   62    0    0    0
SMALL
NO_CHARGES


@<TRIPOS>ATOM
   1 N1            -0.0171     1.3232    -0.0119 N.ar    
   2 C2             0.0017    -0.0035    -0.0051 C.ar    
   3 N3             1.1298    -0.6949    -0.0122 N.ar    
   4 C4             2.3050    -0.0728    -0.0266 C.ar    
   5 C5             2.3189     1.3366    -0.0341 C.ar    
   6 C6             1.1071     2.0203    -0.0261 C.ar    
   7 N7             3.6030    -0.5192    -0.0373 N.pl3   
   8 C8             4.4821     0.5505    -0.0517 C.ar    
   9 C9             3.7312     1.7387    -0.0503 C.ar    
  10 C10            5.8693     0.6432    -0.0665 C.ar    
  11 N11            6.4620     1.8206    -0.0790 N.ar    
  12 C12            5.7843     2.9554    -0.0781 C.ar    
  13 C13            4.4062     2.9594    -0.0631 C.ar    
  14 N14           -1.2019    -0.6887     0.0103 N.pl3   
  15 C15           -2.4019     0.0120     0.1313 C.ar    
  16 C16            4.0020    -1.9288    -0.0332 C.3     
  17 C17            3.4019    -2.6443     1.1946 C.3     
  18 C18            3.4378    -2.6399    -1.2757 C.3     
  19 C19            2.5145    -3.7627    -0.7595 C.3     
  20 C20            2.1022    -3.2940     0.6580 C.3     
  21 N21           -2.3782     1.3196     0.3318 N.ar    
  22 C22           -3.4883     2.0230     0.4517 C.ar    
  23 C23           -4.7290     1.4088     0.3712 C.ar    
  24 C24           -4.7935     0.0322     0.1606 C.ar    
  25 C25           -3.6094    -0.6709     0.0340 C.ar    
  26 N26           -5.9022     2.1617     0.5004 N.3     
  27 C27           -6.7471     1.6386     1.5830 C.3     
  28 C28           -8.0517     2.4369     1.6394 C.3     
  29 C29           -5.5951     3.5826     0.7156 C.3     
  30 C30           -6.8997     4.3809     0.7720 C.3     
  31 N31           -7.7446     3.8578     1.8546 N.3     
  32 Cl32           6.8288    -0.8035    -0.0681 Cl      
  33 H33            1.0848     3.1000    -0.0319 H       
  34 H34            6.3187     3.8939    -0.0887 H       
  35 H35            3.8590     3.8905    -0.0621 H       
  36 H36           -1.2104    -1.6559    -0.0630 H       
  37 H37            5.0890    -2.0088    -0.0186 H       
  38 H38            4.0863    -3.4084     1.5631 H       
  39 H39            3.1724    -1.9251     1.9808 H       
  40 H40            2.8671    -1.9362    -1.8817 H       
  41 H41            4.2509    -3.0658    -1.8636 H       
  42 H42            1.6374    -3.8598    -1.3994 H       
  43 H43            3.0556    -4.7075    -0.7066 H       
  44 H44            1.8111    -4.1432     1.2762 H       
  45 H45            1.2977    -2.5606     0.6035 H       
  46 H46           -3.4299     3.0890     0.6148 H       
  47 H47           -5.7459    -0.4727     0.0940 H       
  48 H48           -3.6222    -1.7383    -0.1299 H       
  49 H49           -6.9711     0.5886     1.3946 H       
  50 H50           -6.2212     1.7337     2.5330 H       
  51 H51           -8.5907     2.3197     0.6992 H       
  52 H52           -8.6676     2.0696     2.4603 H       
  53 H53           -5.0561     3.6998     1.6557 H       
  54 H54           -4.9792     3.9499    -0.1053 H       
  55 H55           -6.6757     5.4308     0.9604 H       
  56 H56           -7.4256     4.2857    -0.1780 H       
  57 H57           -8.5902     4.4004     1.9477 H       
@<TRIPOS>BOND
   1    1    2 ar
   2    1    6 ar
   3    2    3 ar
   4    2   14 1
   5    3    4 ar
   6    4    5 ar
   7    4    7 1
   8    5    6 ar
   9    5    9 1
  10    6   33 1
  11    7    8 1
  12    7   16 1
  13    8    9 ar
  14    8   10 ar
  15    9   13 ar
  16   10   11 ar
  17   10   32 1
  18   11   12 ar
  19   12   13 ar
  20   12   34 1
  21   13   35 1
  22   14   15 1
  23   14   36 1
  24   15   21 ar
  25   15   25 ar
  26   16   18 1
  27   16   17 1
  28   16   37 1
  29   17   20 1
  30   17   38 1
  31   17   39 1
  32   18   19 1
  33   18   40 1
  34   18   41 1
  35   19   20 1
  36   19   42 1
  37   19   43 1
  38   20   44 1
  39   20   45 1
  40   21   22 ar
  41   22   23 ar
  42   22   46 1
  43   23   24 ar
  44   23   26 1
  45   24   25 ar
  46   24   47 1
  47   25   48 1
  48   26   29 1
  49   26   27 1
  50   27   28 1
  51   27   49 1
  52   27   50 1
  53   28   31 1
  54   28   51 1
  55   28   52 1
  56   29   30 1
  57   29   53 1
  58   29   54 1
  59   30   31 1
  60   30   55 1
  61   30   56 1
  62   31   57 1

#	End of record

