#	Name: ASD01820061
#	Creating user name:	WinNT
#	Creation time:	15. 06. 2019 19:36

#	Modifying user name:	WinNT
#	Modification time:	15. 06. 2019 19:36

#	Program:	/corina/corina34_cracker 3.40 0067  02.08.2006

@<TRIPOS>MOLECULE
ASD01820061
  76   81    0    0    0
SMALL
NO_CHARGES


@<TRIPOS>ATOM
   1 C1            -0.0167     1.3781     0.0096 C.ar    
   2 C2             0.0021    -0.0041     0.0020 C.ar    
   3 C3             1.2063    -0.6904    -0.0127 C.ar    
   4 C4             2.3989     0.0151    -0.0203 C.ar    
   5 C5             2.3798     1.4244    -0.0130 C.ar    
   6 C6             1.1684     2.0970     0.0022 C.ar    
   7 C7             3.8260    -0.3700    -0.0355 C.2     
   8 N8             4.5720     0.7494    -0.0368 N.am    
   9 C9             3.7959     1.8481    -0.0241 C.2     
  10 O10            4.1923     2.9960    -0.0228 O.2     
  11 O11            4.2534    -1.5068    -0.0446 O.2     
  12 C12            6.0368     0.7693    -0.0497 C.3     
  13 O13            6.4969     1.1306    -1.3535 O.3     
  14 N14            7.9069     1.1792    -1.4737 N.2     
  15 C15            8.4488     1.4941    -2.6044 C.2     
  16 C16            9.9199     1.5448    -2.7298 C.ar    
  17 C17           10.5272     1.8835    -3.9447 C.ar    
  18 C18           11.9047     1.9186    -4.0169 C.ar    
  19 N19           12.6458     1.6388    -2.9622 N.ar    
  20 C20           12.1146     1.3147    -1.7992 C.ar    
  21 C21           10.7455     1.2613    -1.6355 C.ar    
  22 C22           14.1046     1.6891    -3.0866 C.3     
  23 C23           14.5969     3.0980    -2.7498 C.3     
  24 C24           16.1205     3.1505    -2.8797 C.3     
  25 N25           18.0716     4.6097    -2.6673 N.ar    
  26 C26           18.6028     4.9334    -3.8305 C.ar    
  27 C27           19.9718     4.9985    -3.9909 C.ar    
  28 C28           20.7974     4.7149    -2.8967 C.ar    
  29 C29           20.1901     4.3761    -1.6818 C.ar    
  30 C30           18.8126     4.3352    -1.6112 C.ar    
  31 C31           22.2684     4.7712    -3.0206 C.2     
  32 N32           23.0138     4.5059    -1.9982 N.2     
  33 O33           24.4238     4.5598    -2.1170 O.3     
  34 C34           25.1212     4.2439    -0.9104 C.3     
  35 N35           26.5649     4.3295    -1.1441 N.am    
  36 C36           27.3476     5.3347    -0.7123 C.2     
  37 C37           28.7369     5.0672    -1.1404 C.ar    
  38 C38           28.6955     3.8462    -1.8432 C.ar    
  39 C39           27.2834     3.4103    -1.8139 C.2     
  40 C40           29.9420     5.7340    -0.9879 C.ar    
  41 C41           31.0989     5.1947    -1.5282 C.ar    
  42 C42           31.0583     3.9973    -2.2175 C.ar    
  43 C43           29.8601     3.3191    -2.3779 C.ar    
  44 O44           26.9751     6.3006    -0.0773 O.2     
  45 O45           26.8441     2.3958    -2.3166 O.2     
  46 C46           16.6128     4.5595    -2.5429 C.3     
  47 H47           -0.9613     1.9015     0.0169 H       
  48 H48           -0.9280    -0.5530     0.0079 H       
  49 H49            1.2149    -1.7703    -0.0179 H       
  50 H50            1.1477     3.1767     0.0074 H       
  51 H51            6.3966     1.4974     0.6773 H       
  52 H52            6.4159    -0.2195     0.2083 H       
  53 H53            7.8260     1.7201    -3.4573 H       
  54 H54            9.9267     2.1134    -4.8124 H       
  55 H55           12.3827     2.1784    -4.9499 H       
  56 H56           12.7601     1.0926    -0.9622 H       
  57 H57           10.3175     0.9952    -0.6803 H       
  58 H58           14.5529     0.9732    -2.3976 H       
  59 H59           14.3910     1.4386    -4.1080 H       
  60 H60           14.1486     3.8139    -3.4388 H       
  61 H61           14.3105     3.3485    -1.7284 H       
  62 H62           16.5688     2.4347    -2.1907 H       
  63 H63           16.4069     2.9000    -3.9011 H       
  64 H64           17.9574     5.1501    -4.6689 H       
  65 H65           20.3998     5.2638    -4.9464 H       
  66 H66           20.7905     4.1501    -0.8131 H       
  67 H67           18.3347     4.0748    -0.6784 H       
  68 H68           22.7210     5.0340    -3.9653 H       
  69 H69           24.8369     4.9505    -0.1307 H       
  70 H70           24.8634     3.2326    -0.5959 H       
  71 H71           29.9796     6.6701    -0.4506 H       
  72 H72           32.0385     5.7139    -1.4102 H       
  73 H73           31.9665     3.5872    -2.6339 H       
  74 H74           29.8344     2.3839    -2.9174 H       
  75 H75           16.1645     5.2753    -3.2319 H       
  76 H76           16.3264     4.8100    -1.5215 H       
@<TRIPOS>BOND
   1    1    2 ar
   2    1    6 ar
   3    1   47 1
   4    2    3 ar
   5    2   48 1
   6    3    4 ar
   7    3   49 1
   8    4    5 ar
   9    4    7 1
  10    5    6 ar
  11    5    9 1
  12    6   50 1
  13    7    8 am
  14    7   11 2
  15    8    9 am
  16    8   12 1
  17    9   10 2
  18   12   13 1
  19   12   51 1
  20   12   52 1
  21   13   14 1
  22   14   15 2
  23   15   16 1
  24   15   53 1
  25   16   17 ar
  26   16   21 ar
  27   17   18 ar
  28   17   54 1
  29   18   19 ar
  30   18   55 1
  31   19   20 ar
  32   19   22 1
  33   20   21 ar
  34   20   56 1
  35   21   57 1
  36   22   23 1
  37   22   58 1
  38   22   59 1
  39   23   24 1
  40   23   60 1
  41   23   61 1
  42   24   46 1
  43   24   62 1
  44   24   63 1
  45   25   26 ar
  46   25   30 ar
  47   25   46 1
  48   26   27 ar
  49   26   64 1
  50   27   28 ar
  51   27   65 1
  52   28   29 ar
  53   28   31 1
  54   29   30 ar
  55   29   66 1
  56   30   67 1
  57   31   32 2
  58   31   68 1
  59   32   33 1
  60   33   34 1
  61   34   35 1
  62   34   69 1
  63   34   70 1
  64   35   36 am
  65   35   39 am
  66   36   37 1
  67   36   44 2
  68   37   38 ar
  69   37   40 ar
  70   38   39 1
  71   38   43 ar
  72   39   45 2
  73   40   41 ar
  74   40   71 1
  75   41   42 ar
  76   41   72 1
  77   42   43 ar
  78   42   73 1
  79   43   74 1
  80   46   75 1
  81   46   76 1

#	End of record

