#	Name: ASD01814734
#	Creating user name:	WinNT
#	Creation time:	15. 06. 2019 19:32

#	Modifying user name:	WinNT
#	Modification time:	15. 06. 2019 19:32

#	Program:	/corina/corina34_cracker 3.40 0067  02.08.2006

@<TRIPOS>MOLECULE
ASD01814734
  56   58    0    0    0
SMALL
NO_CHARGES


@<TRIPOS>ATOM
   1 Cl1            0.0000     0.0000     0.0000 Cl      
   2 H2             0.0000     1.3700     0.0000 H       
   3 O3            15.0182    11.4550    12.7348 O.3     
   4 C4            15.0376    10.0261    12.7270 C.3     
   5 H5            15.5478     9.6746    11.8302 H       
   6 C6            15.7776     9.5193    13.9665 C.3     
   7 C7            15.7983     7.9895    13.9581 C.3     
   8 C8            14.3629     7.4599    13.9689 C.3     
   9 C9            13.6229     7.9667    12.7294 C.3     
  10 C10           13.6022     9.4966    12.7378 C.3     
  11 H11           13.0920     9.8481    13.6346 H       
  12 N12           12.8936     9.9819    11.5510 N.am    
  13 C13           11.5505    10.0923    11.5662 C.2     
  14 O14           10.9272     9.7893    12.5643 O.2     
  15 C15           10.8339    10.5831    10.3658 C.ar    
  16 C16            9.4462    10.7006    10.3891 C.ar    
  17 C17            8.7964    11.1596     9.2554 C.ar    
  18 C18            7.2964    11.3031     9.2358 C.3     
  19 C19            6.6808    10.0617     8.6433 C.ar    
  20 C20            6.4651     9.9808     7.2802 C.ar    
  21 C21            5.9006     8.8429     6.7358 C.ar    
  22 C22            5.5515     7.7834     7.5560 C.ar    
  23 F23            5.0000     6.6704     7.0248 F       
  24 C24            5.7684     7.8654     8.9210 C.ar    
  25 C25            6.3375     9.0024     9.4626 C.ar    
  26 C26            9.5527    11.4857     8.1372 C.ar    
  27 C27            8.8421    11.9746     6.9026 C.3     
  28 C28            9.8383    12.6534     5.9617 C.3     
  29 N29           10.9893    11.7560     5.7741 N.3     
  30 C30           11.7938    11.6970     6.9983 C.3     
  31 C31           10.9276    11.3493     8.1820 C.ar    
  32 N32           11.5183    10.9121     9.2802 N.ar    
  33 H33           15.8961    11.8603    12.7286 H       
  34 H34           16.8002     9.8966    13.9587 H       
  35 H35           15.2674     9.8708    14.8633 H       
  36 H36           16.3085     7.6379    13.0613 H       
  37 H37           16.3255     7.6284    14.8411 H       
  38 H38           14.3777     6.3700    13.9629 H       
  39 H39           13.8527     7.8114    14.8657 H       
  40 H40           14.1331     7.6152    11.8326 H       
  41 H41           12.6003     7.5894    12.7371 H       
  42 H42           13.3912    10.2237    10.7542 H       
  43 H43            8.8870    10.4382    11.2750 H       
  44 H44            6.9311    11.4395    10.2536 H       
  45 H45            7.0220    12.1683     8.6322 H       
  46 H46            6.7375    10.8073     6.6406 H       
  47 H47            5.7315     8.7802     5.6709 H       
  48 H48            5.4962     7.0398     9.5619 H       
  49 H49            6.5106     9.0650    10.5268 H       
  50 H50            8.3803    11.1294     6.3922 H       
  51 H51            8.0699    12.6889     7.1884 H       
  52 H52            9.3621    12.8442     5.0000 H       
  53 H53           10.1743    13.5931     6.4002 H       
  54 H54           10.6876    10.8345     5.4949 H       
  55 H55           12.5690    10.9393     6.8839 H       
  56 H56           12.2636    12.6659     7.1677 H       
@<TRIPOS>BOND
   1    1    2 1
   2    3    4 1
   3    3   33 1
   4    4    5 1
   5    4   10 1
   6    4    6 1
   7    6    7 1
   8    6   34 1
   9    6   35 1
  10    7    8 1
  11    7   36 1
  12    7   37 1
  13    8    9 1
  14    8   38 1
  15    8   39 1
  16    9   10 1
  17    9   40 1
  18    9   41 1
  19   10   11 1
  20   10   12 1
  21   12   13 am
  22   12   42 1
  23   13   14 2
  24   13   15 1
  25   15   32 ar
  26   15   16 ar
  27   16   17 ar
  28   16   43 1
  29   17   18 1
  30   17   26 ar
  31   18   19 1
  32   18   44 1
  33   18   45 1
  34   19   25 ar
  35   19   20 ar
  36   20   21 ar
  37   20   46 1
  38   21   22 ar
  39   21   47 1
  40   22   23 1
  41   22   24 ar
  42   24   25 ar
  43   24   48 1
  44   25   49 1
  45   26   31 ar
  46   26   27 1
  47   27   28 1
  48   27   50 1
  49   27   51 1
  50   28   29 1
  51   28   52 1
  52   28   53 1
  53   29   30 1
  54   29   54 1
  55   30   31 1
  56   30   55 1
  57   30   56 1
  58   31   32 ar

#	End of record

