#	Name: ASD02500876
#	Creating user name:	WinNT
#	Creation time:	15. 06. 2019 20:23

#	Modifying user name:	WinNT
#	Modification time:	15. 06. 2019 20:23

#	Program:	/corina/corina34_cracker 3.40 0067  02.08.2006

@<TRIPOS>MOLECULE
ASD02500876
  45   47    0    0    0
SMALL
NO_CHARGES


@<TRIPOS>ATOM
   1 S1            -0.0300     1.6321    -0.8428 S.3     
   2 C2            -0.0028    -0.0648    -0.3232 C.2     
   3 C3             1.4214    -0.4182    -0.3337 C.2     
   4 N4             2.2356     0.5570    -0.7017 N.am    
   5 C5             1.7286     1.7517    -1.0267 C.2     
   6 S6             2.6101     3.1318    -1.5258 S.2     
   7 C7            -1.0566    -0.8537     0.0082 C.2     
   8 O8             1.8232    -1.5253    -0.0264 O.2     
   9 C9             3.6821     0.3307    -0.7526 C.3     
  10 C10            4.0653    -0.1635    -2.1237 C.2     
  11 O11            3.2171    -0.3116    -2.9714 O.2     
  12 O12            5.3489    -0.4393    -2.4033 O.3     
  13 C13           -2.4009    -0.2737     0.1216 C.ar    
  14 C14           -3.5308    -1.0944     0.0188 C.ar    
  15 C15           -4.7922    -0.5427     0.1263 C.ar    
  16 C16           -4.9388     0.8278     0.3367 C.ar    
  17 C17           -3.8192     1.6428     0.4384 C.ar    
  18 C18           -2.5567     1.1008     0.3387 C.ar    
  19 O19           -5.8919    -1.3365     0.0265 O.3     
  20 C20           -5.6679    -2.7312    -0.1894 C.3     
  21 O21           -6.1811     1.3676     0.4420 O.3     
  22 C22           -6.2594     2.7781     0.6571 C.3     
  23 C23           -7.7054     3.1930     0.7474 C.ar    
  24 C24           -8.3461     3.2040     1.9723 C.ar    
  25 C25           -8.3894     3.5679    -0.3938 C.ar    
  26 C26           -9.7158     3.9484    -0.3110 C.ar    
  27 C27          -10.3582     3.9536     0.9130 C.ar    
  28 C28           -9.6725     3.5845     2.0551 C.ar    
  29 H29           -0.9063    -1.9079     0.1885 H       
  30 H30            4.2036     1.2649    -0.5443 H       
  31 H31            3.9598    -0.4144    -0.0071 H       
  32 H32            5.5460    -0.7536    -3.2963 H       
  33 H33           -3.4161    -2.1558    -0.1445 H       
  34 H34           -3.9385     2.7038     0.6006 H       
  35 H35           -1.6878     1.7371     0.4185 H       
  36 H36           -5.1201    -2.8712    -1.1213 H       
  37 H37           -5.0869    -3.1383     0.6382 H       
  38 H38           -6.6257    -3.2480    -0.2498 H       
  39 H39           -5.7497     3.0328     1.5863 H       
  40 H40           -5.7831     3.2993    -0.1733 H       
  41 H41           -7.8105     2.9150     2.8645 H       
  42 H42           -7.8875     3.5638    -1.3501 H       
  43 H43          -10.2500     4.2420    -1.2025 H       
  44 H44          -11.3944     4.2512     0.9777 H       
  45 H45          -10.1744     3.5886     3.0114 H       
@<TRIPOS>BOND
   1    1    2 1
   2    1    5 1
   3    2    3 1
   4    2    7 2
   5    3    4 am
   6    3    8 2
   7    4    5 am
   8    4    9 1
   9    5    6 2
  10    7   13 1
  11    7   29 1
  12    9   10 1
  13    9   30 1
  14    9   31 1
  15   10   11 2
  16   10   12 1
  17   12   32 1
  18   13   14 ar
  19   13   18 ar
  20   14   15 ar
  21   14   33 1
  22   15   16 ar
  23   15   19 1
  24   16   17 ar
  25   16   21 1
  26   17   18 ar
  27   17   34 1
  28   18   35 1
  29   19   20 1
  30   20   36 1
  31   20   37 1
  32   20   38 1
  33   21   22 1
  34   22   23 1
  35   22   39 1
  36   22   40 1
  37   23   24 ar
  38   23   25 ar
  39   24   28 ar
  40   24   41 1
  41   25   26 ar
  42   25   42 1
  43   26   27 ar
  44   26   43 1
  45   27   28 ar
  46   27   44 1
  47   28   45 1

#	End of record

