#	Name: ASD05790053
#	Creating user name:	WinNT
#	Creation time:	15. 06. 2019 21:03

#	Modifying user name:	WinNT
#	Modification time:	15. 06. 2019 21:03

#	Program:	/corina/corina34_cracker 3.40 0067  02.08.2006

@<TRIPOS>MOLECULE
ASD05790053
  42   45    0    0    0
SMALL
NO_CHARGES


@<TRIPOS>ATOM
   1 C1            -0.1753     1.4739    -0.5694 C.2     
   2 C2            -0.1532    -0.0033    -0.5732 C.ar    
   3 C3             0.8987    -0.6881    -1.1877 C.ar    
   4 C4             0.9122    -2.0691    -1.1871 C.ar    
   5 C5            -0.1121    -2.7733    -0.5804 C.ar    
   6 C6            -1.1564    -2.1008     0.0297 C.ar    
   7 C7            -1.1801    -0.7216     0.0419 C.ar    
   8 O8             0.7229     2.0966    -1.1016 O.2     
   9 N9            -1.1942     2.1310     0.0193 N.am    
  10 C10           -1.1619     3.5234     0.1191 C.ar    
  11 C11           -2.3411     4.2534     0.0191 C.ar    
  12 C12           -2.3126     5.6284     0.1177 C.ar    
  13 C13           -1.0962     6.2876     0.3185 C.ar    
  14 C14            0.0854     5.5503     0.4184 C.ar    
  15 C15            0.0487     4.1762     0.3242 C.ar    
  16 O16           -2.1268     8.5760     0.3445 O.3     
  17 C17           -1.0611     7.7604     0.4242 C.2     
  18 N18            0.0150     8.4865     0.6112 N.2     
  19 C19           -0.3456     9.7862     0.6547 C.2     
  20 C20           -1.6908     9.8429     0.4872 C.2     
  21 C21            0.5634    10.9427     0.8509 C.ar    
  22 C22            1.9321    10.7368     1.0116 C.ar    
  23 C23            2.7729    11.8160     1.1939 C.ar    
  24 C24            2.2592    13.1001     1.2172 C.ar    
  25 C25            0.9012    13.3102     1.0582 C.ar    
  26 C26            0.0520    12.2388     0.8695 C.ar    
  27 Cl27          -3.7849     6.5396    -0.0079 Cl      
  28 Cl28           2.1845     0.1947    -1.9500 Cl      
  29 H29            1.7240    -2.6003    -1.6617 H       
  30 H30           -0.0970    -3.8531    -0.5830 H       
  31 H31           -1.9527    -2.6573     0.5015 H       
  32 H32           -1.9935    -0.1987     0.5228 H       
  33 H33           -1.9499     1.6368     0.3736 H       
  34 H34           -3.2801     3.7430    -0.1364 H       
  35 H35            1.0268     6.0564     0.5735 H       
  36 H36            0.9620     3.6056     0.4055 H       
  37 H37           -2.2981    10.7358     0.4712 H       
  38 H38            2.3342     9.7346     0.9940 H       
  39 H39            3.8339    11.6576     1.3189 H       
  40 H40            2.9207    13.9417     1.3604 H       
  41 H41            0.5054    14.3149     1.0775 H       
  42 H42           -1.0074    12.4043     0.7406 H       
@<TRIPOS>BOND
   1    1    2 1
   2    1    8 2
   3    1    9 am
   4    2    3 ar
   5    2    7 ar
   6    3    4 ar
   7    3   28 1
   8    4    5 ar
   9    4   29 1
  10    5    6 ar
  11    5   30 1
  12    6    7 ar
  13    6   31 1
  14    7   32 1
  15    9   10 1
  16    9   33 1
  17   10   11 ar
  18   10   15 ar
  19   11   12 ar
  20   11   34 1
  21   12   13 ar
  22   12   27 1
  23   13   14 ar
  24   13   17 1
  25   14   15 ar
  26   14   35 1
  27   15   36 1
  28   16   17 1
  29   16   20 1
  30   17   18 2
  31   18   19 1
  32   19   20 2
  33   19   21 1
  34   20   37 1
  35   21   22 ar
  36   21   26 ar
  37   22   23 ar
  38   22   38 1
  39   23   24 ar
  40   23   39 1
  41   24   25 ar
  42   24   40 1
  43   25   26 ar
  44   25   41 1
  45   26   42 1

#	End of record

