#	Name: ASD02198800
#	Creating user name:	WinNT
#	Creation time:	15. 06. 2019 20:20

#	Modifying user name:	WinNT
#	Modification time:	15. 06. 2019 20:20

#	Program:	/corina/corina34_cracker 3.40 0067  02.08.2006

@<TRIPOS>MOLECULE
ASD02198800
  49   53    0    0    0
SMALL
NO_CHARGES


@<TRIPOS>ATOM
   1 C1            -0.0433     1.5018    -0.1148 C.2     
   2 C2            -0.0730     0.1621     0.0977 C.2     
   3 N3             1.0713    -0.5396     0.2600 N.pl3   
   4 N4             2.2358    -0.0048     0.2263 N.2     
   5 C5             2.4074     1.2846     0.0281 C.2     
   6 C6             1.2216     2.1358    -0.1603 C.2     
   7 C7             0.9798    -1.9188     0.4761 C.ar    
   8 C8             1.5810    -2.4917     1.5956 C.ar    
   9 C9             1.4884    -3.8584     1.8076 C.ar    
  10 C10            0.8012    -4.6531     0.9110 C.ar    
  11 C11            0.2011    -4.0860    -0.2060 C.ar    
  12 C12            0.2854    -2.7184    -0.4206 C.ar    
  13 C13            3.7644     1.8668    -0.0046 C.2     
  14 N14            4.3062     2.6069    -1.0177 N.pl3   
  15 N15            5.6081     2.9584    -0.6400 N.2     
  16 C16            5.8521     2.4588     0.5453 C.2     
  17 C17            4.7202     1.7711     0.9830 C.2     
  18 C18            3.6729     2.9520    -2.2184 C.ar    
  19 C19            3.8068     4.2352    -2.7319 C.ar    
  20 C20            3.1811     4.5724    -3.9161 C.ar    
  21 C21            2.4219     3.6336    -4.5903 C.ar    
  22 C22            2.2862     2.3550    -4.0814 C.ar    
  23 C23            2.9145     2.0099    -2.9008 C.ar    
  24 O24            1.3246     3.3389    -0.3482 O.2     
  25 N25           -0.4957    -4.8965    -1.1148 N.pl3   
  26 N26           -1.0611    -4.4788    -2.3265 N.2     
  27 C27           -1.6248    -5.5151    -2.8938 C.2     
  28 C28           -1.4370    -6.6250    -2.0631 C.2     
  29 C29           -0.7352    -6.2201    -0.9790 C.2     
  30 O30            2.2580    -1.7107     2.4787 O.3     
  31 C31            2.8489    -2.3652     3.6032 C.3     
  32 H32           -0.9547     2.0654    -0.2493 H       
  33 H33           -1.0229    -0.3503     0.1380 H       
  34 H34            1.9545    -4.3025     2.6748 H       
  35 H35            0.7306    -5.7177     1.0786 H       
  36 H36           -0.1812    -2.2776    -1.2891 H       
  37 H37            6.7755     2.5651     1.0951 H       
  38 H38            4.6145     1.2513     1.9237 H       
  39 H39            4.3994     4.9690    -2.2056 H       
  40 H40            3.2846     5.5704    -4.3158 H       
  41 H41            1.9336     3.8997    -5.5161 H       
  42 H42            1.6920     1.6243    -4.6099 H       
  43 H43            2.8082     1.0111    -2.5038 H       
  44 H44           -2.1454    -5.5134    -3.8399 H       
  45 H45           -1.7868    -7.6286    -2.2551 H       
  46 H46           -0.4283    -6.8413    -0.1505 H       
  47 H47            3.5689    -3.1060     3.2554 H       
  48 H48            3.3571    -1.6292     4.2262 H       
  49 H49            2.0715    -2.8596     4.1857 H       
@<TRIPOS>BOND
   1    1    2 2
   2    1    6 1
   3    1   32 1
   4    2    3 1
   5    2   33 1
   6    3    4 1
   7    3    7 1
   8    4    5 2
   9    5    6 1
  10    5   13 1
  11    6   24 2
  12    7    8 ar
  13    7   12 ar
  14    8    9 ar
  15    8   30 1
  16    9   10 ar
  17    9   34 1
  18   10   11 ar
  19   10   35 1
  20   11   12 ar
  21   11   25 1
  22   12   36 1
  23   13   14 1
  24   13   17 2
  25   14   15 1
  26   14   18 1
  27   15   16 2
  28   16   17 1
  29   16   37 1
  30   17   38 1
  31   18   19 ar
  32   18   23 ar
  33   19   20 ar
  34   19   39 1
  35   20   21 ar
  36   20   40 1
  37   21   22 ar
  38   21   41 1
  39   22   23 ar
  40   22   42 1
  41   23   43 1
  42   25   26 1
  43   25   29 1
  44   26   27 2
  45   27   28 1
  46   27   44 1
  47   28   29 2
  48   28   45 1
  49   29   46 1
  50   30   31 1
  51   31   47 1
  52   31   48 1
  53   31   49 1

#	End of record

