#	Name: ASD08070053
#	Creating user name:	WinNT
#	Creation time:	15. 06. 2019 21:14

#	Modifying user name:	WinNT
#	Modification time:	15. 06. 2019 21:14

#	Program:	/corina/corina34_cracker 3.40 0067  02.08.2006

@<TRIPOS>MOLECULE
ASD08070053
  40   41    0    0    0
SMALL
NO_CHARGES


@<TRIPOS>ATOM
   1 C1            -0.0829     1.1914     1.1576 C.ar    
   2 C2            -1.2271     1.5510     1.8666 C.ar    
   3 C3            -2.4235     0.8983     1.6230 C.ar    
   4 C4            -2.4812    -0.1128     0.6733 C.ar    
   5 C5            -1.3397    -0.4689    -0.0315 C.ar    
   6 C6            -0.1437     0.1787     0.2146 C.ar    
   7 O7             0.9542     1.9751     1.5773 O.3     
   8 C8             0.3439     3.0902     2.2535 C.3     
   9 O9            -0.9067     2.5590     2.7297 O.3     
  10 N10           -3.6915    -0.7740     0.4267 N.am    
  11 C11           -4.8535    -0.0928     0.4745 C.2     
  12 C12           -6.1446    -0.7788     0.1092 C.3     
  13 O13           -4.8600     1.0723     0.8115 O.2     
  14 C14           -7.6183    -2.7361     0.5987 C.3     
  15 C15           -6.3738    -1.9667     1.0459 C.3     
  16 C16           -7.8990    -3.8703     1.5864 C.3     
  17 C17           -7.3041     0.2100     0.2466 C.3     
  18 C18           -7.1623     1.3116    -0.8058 C.3     
  19 C19           -8.3895     2.2240    -0.7575 C.3     
  20 H20           -3.3114     1.1753     2.1718 H       
  21 H21           -1.3851    -1.2557    -0.7699 H       
  22 H22            0.7432    -0.0998    -0.3353 H       
  23 H23            0.9636     3.4177     3.0883 H       
  24 H24            0.1711     3.9117     1.5582 H       
  25 H25           -3.6932    -1.7221     0.2215 H       
  26 H26           -6.0893    -1.1331    -0.9201 H       
  27 H27           -8.4727    -2.0598     0.5697 H       
  28 H28           -7.4507    -3.1525    -0.3946 H       
  29 H29           -5.5072    -2.6272     1.0137 H       
  30 H30           -6.5169    -1.6044     2.0639 H       
  31 H31           -7.0447    -4.5466     1.6154 H       
  32 H32           -8.0667    -3.4539     2.5797 H       
  33 H33           -8.7857    -4.4184     1.2679 H       
  34 H34           -8.2482    -0.3143     0.0989 H       
  35 H35           -7.2869     0.6541     1.2419 H       
  36 H36           -6.2661     1.8970    -0.6005 H       
  37 H37           -7.0833     0.8609    -1.7951 H       
  38 H38           -9.2858     1.6386    -0.9627 H       
  39 H39           -8.4686     2.6746     0.2318 H       
  40 H40           -8.2886     3.0087    -1.5072 H       
@<TRIPOS>BOND
   1    1    2 ar
   2    1    7 1
   3    1    6 ar
   4    2    3 ar
   5    2    9 1
   6    3    4 ar
   7    3   20 1
   8    4    5 ar
   9    4   10 1
  10    5    6 ar
  11    5   21 1
  12    6   22 1
  13    7    8 1
  14    8    9 1
  15    8   23 1
  16    8   24 1
  17   10   11 am
  18   10   25 1
  19   11   12 1
  20   11   13 2
  21   12   17 1
  22   12   15 1
  23   12   26 1
  24   14   15 1
  25   14   16 1
  26   14   27 1
  27   14   28 1
  28   15   29 1
  29   15   30 1
  30   16   31 1
  31   16   32 1
  32   16   33 1
  33   17   18 1
  34   17   34 1
  35   17   35 1
  36   18   19 1
  37   18   36 1
  38   18   37 1
  39   19   38 1
  40   19   39 1
  41   19   40 1

#	End of record

