#	Name: ASD01917609
#	Creating user name:	WinNT
#	Creation time:	15. 06. 2019 20:09

#	Modifying user name:	WinNT
#	Modification time:	15. 06. 2019 20:09

#	Program:	/corina/corina34_cracker 3.40 0067  02.08.2006

@<TRIPOS>MOLECULE
ASD01917609
  41   44    0    0    0
SMALL
NO_CHARGES


@<TRIPOS>ATOM
   1 C1             0.0841     1.5227    -0.2857 C.ar    
   2 C2             0.1234     0.1796    -0.6840 C.ar    
   3 C3             1.3247    -0.4239    -0.9028 C.ar    
   4 C4             2.5182     0.2793    -0.7350 C.ar    
   5 C5             2.5142     1.5867    -0.3484 C.ar    
   6 C6             1.2924     2.2406    -0.1141 C.ar    
   7 N7             1.2600     3.5225     0.2658 N.ar    
   8 C8             0.1290     4.1484     0.4888 C.ar    
   9 C9            -1.1004     3.5170     0.3436 C.ar    
  10 C10           -1.1465     2.1872    -0.0540 C.ar    
  11 C11           -2.4389     1.4844    -0.2242 C.ar    
  12 C12           -2.8456     0.5311     0.7094 C.ar    
  13 C13           -4.0504    -0.1206     0.5459 C.ar    
  14 C14           -4.8555     0.1701    -0.5426 C.ar    
  15 C15           -4.4567     1.1155    -1.4725 C.ar    
  16 C16           -3.2566     1.7773    -1.3158 C.ar    
  17 S17           -2.5924     4.4007     0.6557 S.o2    
  18 O18           -2.2082     5.7129     1.0427 O.2     
  19 O19           -3.4534     4.1353    -0.4432 O.2     
  20 C20           -3.3478     3.6665     2.0682 C.ar    
  21 C21           -2.9334     4.0246     3.3345 C.ar    
  22 C22           -3.5330     3.4418     4.4525 C.ar    
  23 C23           -4.5491     2.4994     4.2803 C.ar    
  24 C24           -4.9536     2.1506     3.0087 C.ar    
  25 C25           -4.3588     2.7364     1.9050 C.ar    
  26 Cl26          -6.3702    -0.6542    -0.7426 Cl      
  27 F27            3.6954    -0.3449    -0.9586 F       
  28 C28           -3.1078     3.8084     5.7699 C.1     
  29 N29           -2.7704     4.0992     6.8149 N.1     
  30 H30           -0.7942    -0.3742    -0.8165 H       
  31 H31            1.3538    -1.4590    -1.2094 H       
  32 H32            3.4461     2.1179    -0.2231 H       
  33 H33            0.1540     5.1840     0.7943 H       
  34 H34           -2.2183     0.3034     1.5585 H       
  35 H35           -4.3661    -0.8591     1.2679 H       
  36 H36           -5.0885     1.3383    -2.3196 H       
  37 H37           -2.9485     2.5177    -2.0392 H       
  38 H38           -2.1468     4.7539     3.4606 H       
  39 H39           -5.0170     2.0445     5.1409 H       
  40 H40           -5.7390     1.4217     2.8740 H       
  41 H41           -4.6823     2.4630     0.9115 H       
@<TRIPOS>BOND
   1    1    2 ar
   2    1    6 ar
   3    1   10 ar
   4    2    3 ar
   5    2   30 1
   6    3    4 ar
   7    3   31 1
   8    4    5 ar
   9    4   27 1
  10    5    6 ar
  11    5   32 1
  12    6    7 ar
  13    7    8 ar
  14    8    9 ar
  15    8   33 1
  16    9   10 ar
  17    9   17 1
  18   10   11 1
  19   11   12 ar
  20   11   16 ar
  21   12   13 ar
  22   12   34 1
  23   13   14 ar
  24   13   35 1
  25   14   15 ar
  26   14   26 1
  27   15   16 ar
  28   15   36 1
  29   16   37 1
  30   17   18 2
  31   17   20 1
  32   17   19 2
  33   20   21 ar
  34   20   25 ar
  35   21   22 ar
  36   21   38 1
  37   22   23 ar
  38   22   28 1
  39   23   24 ar
  40   23   39 1
  41   24   25 ar
  42   24   40 1
  43   25   41 1
  44   28   29 3

#	End of record

