#	Name: ASD02038375
#	Creating user name:	WinNT
#	Creation time:	15. 06. 2019 20:16

#	Modifying user name:	WinNT
#	Modification time:	15. 06. 2019 20:16

#	Program:	/corina/corina34_cracker 3.40 0067  02.08.2006

@<TRIPOS>MOLECULE
ASD02038375
  50   53    0    0    0
SMALL
NO_CHARGES


@<TRIPOS>ATOM
   1 N1            -0.0162     1.3436     0.0094 N.am    
   2 C2             0.0021    -0.0041     0.0020 C.2     
   3 C3            -1.2926    -0.7753     0.0102 C.3     
   4 O4            -1.0125    -2.1765     0.0000 O.3     
   5 C5            -2.0794    -3.0193     0.0057 C.ar    
   6 C6            -1.8787    -4.3919    -0.0036 C.ar    
   7 C7            -2.9621    -5.2477     0.0024 C.ar    
   8 C8            -4.2523    -4.7352     0.0179 C.ar    
   9 C9            -4.4526    -3.3612     0.0259 C.ar    
  10 C10           -3.3683    -2.5063     0.0265 C.ar    
  11 C11            1.2357     2.1156     0.0016 C.3     
  12 C12            1.1612     3.1524    -1.1243 C.3     
  13 N13           -0.0610     3.9524    -0.9688 N.3     
  14 C14           -1.2637     3.1194    -1.1013 C.3     
  15 C15           -1.2886     2.0812     0.0194 C.3     
  16 C16           -0.0841     5.0134    -1.8779 C.ar    
  17 C17           -1.1593     5.8926    -1.8941 C.ar    
  18 C18           -1.1795     6.9403    -2.7937 C.ar    
  19 C19           -0.1298     7.1145    -3.6785 C.ar    
  20 C20            0.9424     6.2399    -3.6650 C.ar    
  21 C21            0.9708     5.1941    -2.7633 C.ar    
  22 Cl22          -0.1585     8.4325    -4.8080 Cl      
  23 O23            1.0605    -0.5961    -0.0113 O.2     
  24 C24           -2.7479    -6.7391    -0.0066 C.3     
  25 C25           -3.8492    -7.4186     0.8078 C.3     
  26 C26           -5.1954    -6.8926     0.3880 C.2     
  27 N27           -5.3491    -5.6058     0.0258 N.am    
  28 O28           -6.1528    -7.6372     0.3761 O.2     
  29 H29           -1.8592    -0.5245     0.9070 H       
  30 H30           -1.8762    -0.5150    -0.8728 H       
  31 H31           -0.8752    -4.7909    -0.0159 H       
  32 H32           -5.4558    -2.9615     0.0371 H       
  33 H33           -3.5238    -1.4375     0.0332 H       
  34 H34            1.3592     2.6225     0.9586 H       
  35 H35            2.0778     1.4458    -0.1725 H       
  36 H36            2.0323     3.8057    -1.0753 H       
  37 H37            1.1421     2.6426    -2.0875 H       
  38 H38           -2.1512     3.7488    -1.0356 H       
  39 H39           -1.2490     2.6100    -2.0648 H       
  40 H40           -2.1158     1.3897    -0.1405 H       
  41 H41           -1.4069     2.5823     0.9801 H       
  42 H42           -1.9789     5.7568    -1.2040 H       
  43 H43           -2.0154     7.6240    -2.8070 H       
  44 H44            1.7599     6.3778    -4.3571 H       
  45 H45            1.8080     4.5120    -2.7529 H       
  46 H46           -2.7777    -7.1040    -1.0333 H       
  47 H47           -1.7771    -6.9692     0.4324 H       
  48 H48           -3.8125    -8.4949     0.6392 H       
  49 H49           -3.6948    -7.2139     1.8672 H       
  50 H50           -6.2254    -5.2791    -0.2318 H       
@<TRIPOS>BOND
   1    1    2 am
   2    1   11 1
   3    1   15 1
   4    2   23 2
   5    2    3 1
   6    3    4 1
   7    3   29 1
   8    3   30 1
   9    4    5 1
  10    5    6 ar
  11    5   10 ar
  12    6    7 ar
  13    6   31 1
  14    7    8 ar
  15    7   24 1
  16    8    9 ar
  17    8   27 1
  18    9   10 ar
  19    9   32 1
  20   10   33 1
  21   11   12 1
  22   11   34 1
  23   11   35 1
  24   12   13 1
  25   12   36 1
  26   12   37 1
  27   13   14 1
  28   13   16 1
  29   14   15 1
  30   14   38 1
  31   14   39 1
  32   15   40 1
  33   15   41 1
  34   16   17 ar
  35   16   21 ar
  36   17   18 ar
  37   17   42 1
  38   18   19 ar
  39   18   43 1
  40   19   20 ar
  41   19   22 1
  42   20   21 ar
  43   20   44 1
  44   21   45 1
  45   24   25 1
  46   24   46 1
  47   24   47 1
  48   25   26 1
  49   25   48 1
  50   25   49 1
  51   26   27 am
  52   26   28 2
  53   27   50 1

#	End of record

