#	Name: ASD05313033
#	Creating user name:	WinNT
#	Creation time:	15. 06. 2019 20:58

#	Modifying user name:	WinNT
#	Modification time:	15. 06. 2019 20:58

#	Program:	/corina/corina34_cracker 3.40 0067  02.08.2006

@<TRIPOS>MOLECULE
ASD05313033
  43   46    0    0    0
SMALL
NO_CHARGES


@<TRIPOS>ATOM
   1 C1            -0.1372     1.5928     0.1673 C.2     
   2 C2            -0.1233     0.0833     0.1336 C.3     
   3 N3             0.9925     2.3593     0.1485 N.pl3   
   4 N4             1.2576    -0.3264    -0.1853 N.am    
   5 C5             2.3621     0.3685     0.4929 C.3     
   6 C6             2.3593     1.8459     0.0816 C.3     
   7 N7            -0.7514     3.6179     0.2415 N.2     
   8 N8            -1.1561     2.3945     0.2226 N.2     
   9 C9             0.5675     3.6532     0.1995 C.2     
  10 N10            0.9748     6.1572     0.1716 N.pl3   
  11 C11            1.4154     4.8572     0.2095 C.2     
  12 C12            2.7794     4.8798     0.2591 C.2     
  13 C13            3.1752     6.2256     0.2509 C.2     
  14 C14            2.0574     6.9834     0.1973 C.2     
  15 C15           -0.4252     6.5841     0.1078 C.3     
  16 C16            1.5002    -1.3107    -1.0734 C.2     
  17 O17            2.6423    -1.5618    -1.4054 O.2     
  18 C18            0.3779    -2.0847    -1.6434 C.ar    
  19 C19            0.2515    -2.2216    -3.0283 C.ar    
  20 C20           -0.8002    -2.9465    -3.5535 C.ar    
  21 C21           -1.7265    -3.5353    -2.7118 C.ar    
  22 C22           -1.6068    -3.4028    -1.3396 C.ar    
  23 C23           -0.5577    -2.6872    -0.8009 C.ar    
  24 C24           -0.9391    -3.0959    -5.0466 C.3     
  25 F25           -2.0711    -3.8657    -5.3350 F       
  26 F26           -1.0734    -1.8320    -5.6313 F       
  27 F27            0.1982    -3.7286    -5.5598 F       
  28 Cl28           1.4129    -1.4821    -4.0857 Cl      
  29 H29           -0.4139    -0.3134     1.1064 H       
  30 H30           -0.8057    -0.2781    -0.6357 H       
  31 H31            2.2326     0.2910     1.5724 H       
  32 H32            3.3097    -0.0873     0.2058 H       
  33 H33            2.7350     1.9413    -0.9371 H       
  34 H34            2.9956     2.4140     0.7603 H       
  35 H35            3.4328     4.0208     0.2974 H       
  36 H36            4.1911     6.5907     0.2825 H       
  37 H37            2.0276     8.0628     0.1781 H       
  38 H38           -0.8412     6.6173     1.1147 H       
  39 H39           -0.4827     7.5753    -0.3420 H       
  40 H40           -0.9934     5.8772    -0.4969 H       
  41 H41           -2.5473    -4.1008    -3.1276 H       
  42 H42           -2.3342    -3.8646    -0.6885 H       
  43 H43           -0.4632    -2.5894     0.2705 H       
@<TRIPOS>BOND
   1    1    2 1
   2    1    3 1
   3    1    8 2
   4    2    4 1
   5    2   29 1
   6    2   30 1
   7    3    6 1
   8    3    9 1
   9    4    5 1
  10    4   16 am
  11    5    6 1
  12    5   31 1
  13    5   32 1
  14    6   33 1
  15    6   34 1
  16    7    8 1
  17    7    9 2
  18    9   11 1
  19   10   11 1
  20   10   14 1
  21   10   15 1
  22   11   12 2
  23   12   13 1
  24   12   35 1
  25   13   14 2
  26   13   36 1
  27   14   37 1
  28   15   38 1
  29   15   39 1
  30   15   40 1
  31   16   17 2
  32   16   18 1
  33   18   19 ar
  34   18   23 ar
  35   19   20 ar
  36   19   28 1
  37   20   21 ar
  38   20   24 1
  39   21   22 ar
  40   21   41 1
  41   22   23 ar
  42   22   42 1
  43   23   43 1
  44   24   25 1
  45   24   26 1
  46   24   27 1

#	End of record

