#	Name: ASD01150546
#	Creating user name:	WinNT
#	Creation time:	15. 06. 2019 19:04

#	Modifying user name:	WinNT
#	Modification time:	15. 06. 2019 19:04

#	Program:	/corina/corina34_cracker 3.40 0067  02.08.2006

@<TRIPOS>MOLECULE
ASD01150546
  49   51    0    0    0
SMALL
NO_CHARGES


@<TRIPOS>ATOM
   1 C1             0.4933     1.3920    -0.9463 C.ar    
   2 C2             0.4638     0.0110    -0.9223 C.ar    
   3 C3             1.9479     0.0101     0.9678 C.ar    
   4 C4             1.9790     1.3965     0.9447 C.ar    
   5 C5             1.2509     2.0887    -0.0130 C.ar    
   6 N6             1.2802     3.4880    -0.0388 N.am    
   7 C7             0.1264     4.1736    -0.1213 C.2     
   8 N8             0.1178     5.5194    -0.1484 N.am    
   9 C9             1.2790     6.2039    -0.0925 C.2     
  10 C10            2.5444     5.4600    -0.0021 C.2     
  11 N11            2.5099     4.1537     0.0273 N.2     
  12 O12            1.2794     7.4207    -0.1168 O.2     
  13 C13           -1.1538     6.2413    -0.2391 C.3     
  14 O14           -0.9268     3.5677    -0.1728 O.2     
  15 C15           -1.6751     6.5169     1.1477 C.ar    
  16 O16            3.7302     6.1203     0.0557 O.3     
  17 C17            4.9131     5.3232     0.1422 C.3     
  18 C18            1.1882    -0.6824     0.0308 C.ar    
  19 N19            2.6816    -0.6917     1.9323 N.am    
  20 C20            2.9447    -0.1220     3.1251 C.2     
  21 C21            3.6402    -0.9146     4.2017 C.3     
  22 O22            2.6216     1.0286     3.3321 O.2     
  23 C23           -2.6614     5.7124     1.6870 C.ar    
  24 C24           -3.1420     5.9617     2.9594 C.ar    
  25 C25           -2.6367     7.0177     3.6967 C.ar    
  26 C26           -1.6459     7.8276     3.1578 C.ar    
  27 C27           -1.1618     7.5715     1.8822 C.ar    
  28 F28            1.1574    -2.0329     0.0517 F       
  29 O29           -1.1475     8.8667     3.8800 O.3     
  30 F30           -3.1071     7.2609     4.9396 F       
  31 C31           -0.0178     8.5957     4.7121 C.3     
  32 F32           -0.1975     8.3570     1.3547 F       
  33 H33           -0.0696     1.9305    -1.6943 H       
  34 H34           -0.1261    -0.5283    -1.6487 H       
  35 H35            2.5683     1.9365     1.6710 H       
  36 H36           -0.9994     7.1845    -0.7633 H       
  37 H37           -1.8770     5.6361    -0.7856 H       
  38 H38            4.8740     4.7117     1.0436 H       
  39 H39            4.9802     4.6767    -0.7328 H       
  40 H40            5.7872     5.9732     0.1816 H       
  41 H41            3.0005    -1.5878     1.7420 H       
  42 H42            4.6177    -1.2361     3.8421 H       
  43 H43            3.7657    -0.2921     5.0876 H       
  44 H44            3.0404    -1.7890     4.4541 H       
  45 H45           -3.0577     4.8877     1.1133 H       
  46 H46           -3.9129     5.3316     3.3778 H       
  47 H47            0.2782     9.5073     5.2312 H       
  48 H48           -0.2799     7.8304     5.4426 H       
  49 H49            0.8101     8.2427     4.0971 H       
@<TRIPOS>BOND
   1    1    2 ar
   2    1    5 ar
   3    1   33 1
   4    2   18 ar
   5    2   34 1
   6    3    4 ar
   7    3   19 1
   8    3   18 ar
   9    4    5 ar
  10    4   35 1
  11    5    6 1
  12    6    7 am
  13    6   11 1
  14    7    8 am
  15    7   14 2
  16    8    9 am
  17    8   13 1
  18    9   10 1
  19    9   12 2
  20   10   11 2
  21   10   16 1
  22   13   15 1
  23   13   36 1
  24   13   37 1
  25   15   23 ar
  26   15   27 ar
  27   16   17 1
  28   17   38 1
  29   17   39 1
  30   17   40 1
  31   18   28 1
  32   19   20 am
  33   19   41 1
  34   20   21 1
  35   20   22 2
  36   21   42 1
  37   21   43 1
  38   21   44 1
  39   23   24 ar
  40   23   45 1
  41   24   25 ar
  42   24   46 1
  43   25   26 ar
  44   25   30 1
  45   26   27 ar
  46   26   29 1
  47   27   32 1
  48   29   31 1
  49   31   47 1
  50   31   48 1
  51   31   49 1

#	End of record

