#	Name: ASD03730122
#	Creating user name:	WinNT
#	Creation time:	15. 06. 2019 20:44

#	Modifying user name:	WinNT
#	Modification time:	15. 06. 2019 20:44

#	Program:	/corina/corina34_cracker 3.40 0067  02.08.2006

@<TRIPOS>MOLECULE
ASD03730122
  49   54    0    0    0
SMALL
NO_CHARGES


@<TRIPOS>ATOM
   1 C1            -0.0187     1.5021     0.0191 C.2     
   2 C2             0.0010    -0.0045    -0.0112 C.3     
   3 O3             1.0236     2.1219     0.0380 O.2     
   4 N4            -1.1946     2.1607     0.0195 N.am    
   5 O5             6.2126     2.8427     2.2249 O.3     
   6 C6             7.6293     2.7821     2.4747 C.3     
   7 O7             7.8331     1.4447     2.9673 O.3     
   8 C8             6.8299     0.6967     2.4205 C.ar    
   9 C9             5.8333     1.5569     1.9651 C.ar    
  10 C10            6.6846    -0.6709     2.2712 C.ar    
  11 C11            5.5457    -1.1973     1.6690 C.ar    
  12 C12            4.5533    -0.3284     1.2256 C.ar    
  13 C13            4.6980     1.0359     1.3675 C.ar    
  14 O14            5.2165    -2.4957     1.4120 O.3     
  15 C15            3.4553    -1.1863     0.6562 C.3     
  16 C16            3.7981    -2.5886     1.1771 C.3     
  17 N17            1.3885    -0.4748    -0.0120 N.am    
  18 C18            2.0940    -0.7394     1.1056 C.2     
  19 C19            3.4142    -1.1406    -0.8425 C.ar    
  20 C20            4.3311    -1.4288    -1.8287 C.ar    
  21 C21            3.9847    -1.2851    -3.1604 C.ar    
  22 C22            2.7159    -0.8508    -3.4985 C.ar    
  23 C23            1.7943    -0.5599    -2.5144 C.ar    
  24 C24            2.1341    -0.7021    -1.1713 C.ar    
  25 O25            1.7054    -0.6369     2.2500 O.2     
  26 C26           -1.2153     3.5561     0.1328 C.ar    
  27 C27           -2.3319     4.1955     0.6584 C.ar    
  28 C28           -2.3490     5.5727     0.7694 C.ar    
  29 C29           -1.2559     6.3146     0.3573 C.ar    
  30 C30           -0.1438     5.6804    -0.1665 C.ar    
  31 C31           -0.1186     4.3032    -0.2742 C.ar    
  32 Cl32          -3.7037     3.2650     1.1744 Cl      
  33 Br33          -1.2829     8.1993     0.5100 Br      
  34 H34           -0.5135    -0.3923     0.8680 H       
  35 H35           -0.5025    -0.3565    -0.9116 H       
  36 H36           -2.0265     1.6681    -0.0588 H       
  37 H37            8.1880     2.9398     1.5521 H       
  38 H38            7.9170     3.5156     3.2279 H       
  39 H39            7.4601    -1.3344     2.6243 H       
  40 H40            3.9237     1.6995     1.0119 H       
  41 H41            3.5793    -3.3456     0.4239 H       
  42 H42            3.2651    -2.7981     2.1044 H       
  43 H43            5.3213    -1.7676    -1.5623 H       
  44 H44            4.7032    -1.5119    -3.9341 H       
  45 H45            2.4455    -0.7385    -4.5381 H       
  46 H46            0.8056    -0.2207    -2.7863 H       
  47 H47           -3.2161     6.0705     1.1777 H       
  48 H48            0.7075     6.2621    -0.4879 H       
  49 H49            0.7519     3.8087    -0.6792 H       
@<TRIPOS>BOND
   1    1    2 1
   2    1    3 2
   3    1    4 am
   4    2   17 1
   5    2   34 1
   6    2   35 1
   7    4   26 1
   8    4   36 1
   9    5    6 1
  10    5    9 1
  11    6    7 1
  12    6   37 1
  13    6   38 1
  14    7    8 1
  15    8    9 ar
  16    8   10 ar
  17    9   13 ar
  18   10   11 ar
  19   10   39 1
  20   11   12 ar
  21   11   14 1
  22   12   13 ar
  23   12   15 1
  24   13   40 1
  25   14   16 1
  26   15   16 1
  27   15   18 1
  28   15   19 1
  29   16   41 1
  30   16   42 1
  31   17   18 am
  32   17   24 1
  33   18   25 2
  34   19   20 ar
  35   19   24 ar
  36   20   21 ar
  37   20   43 1
  38   21   22 ar
  39   21   44 1
  40   22   23 ar
  41   22   45 1
  42   23   24 ar
  43   23   46 1
  44   26   27 ar
  45   26   31 ar
  46   27   28 ar
  47   27   32 1
  48   28   29 ar
  49   28   47 1
  50   29   30 ar
  51   29   33 1
  52   30   31 ar
  53   30   48 1
  54   31   49 1

#	End of record

