#	Name: ASD07931828
#	Creating user name:	WinNT
#	Creation time:	15. 06. 2019 21:13

#	Modifying user name:	WinNT
#	Modification time:	15. 06. 2019 21:13

#	Program:	/corina/corina34_cracker 3.40 0067  02.08.2006

@<TRIPOS>MOLECULE
ASD07931828
  35   36    0    0    0
SMALL
NO_CHARGES


@<TRIPOS>ATOM
   1 C1            -0.0187     1.5258     0.0104 C.3     
   2 C2             0.0021    -0.0041     0.0020 C.3     
   3 N3             0.6059    -0.4925     1.2489 N.3     
   4 C4             0.6428    -1.9607     1.2762 C.3     
   5 C5             1.7454    -2.5326     2.1829 C.3     
   6 C6             0.7250    -3.5969     2.6198 C.3     
   7 C7            -0.3716    -2.5844     2.2493 C.3     
   8 O8             2.1368    -1.6486     3.2353 O.3     
   9 C9             3.5002    -1.7925     3.6383 C.3     
  10 C10            3.8019    -0.8174     4.7469 C.ar    
  11 C11            3.6146    -1.1897     6.0649 C.ar    
  12 C12            3.8913    -0.2952     7.0819 C.ar    
  13 C13            4.3558     0.9715     6.7808 C.ar    
  14 C14            4.5440     1.3435     5.4629 C.ar    
  15 C15            4.2714     0.4475     4.4461 C.ar    
  16 O16            1.3220     2.0204     0.0003 O.3     
  17 H17           -0.5459     1.8868    -0.8726 H       
  18 H18           -0.5289     1.8773     0.9072 H       
  19 H19           -1.0175    -0.3808    -0.0798 H       
  20 H20            0.5883    -0.3548    -0.8473 H       
  21 H21            1.5284    -0.1051     1.3799 H       
  22 H22            0.6224    -2.4042     0.2807 H       
  23 H23            2.5941    -2.9407     1.6339 H       
  24 H24            0.7271    -4.4876     1.9916 H       
  25 H25            0.7641    -3.8282     3.6843 H       
  26 H26           -0.6518    -1.9243     3.0703 H       
  27 H27           -1.2320    -3.0344     1.7541 H       
  28 H28            3.6689    -2.8093     3.9928 H       
  29 H29            4.1533    -1.5907     2.7892 H       
  30 H30            3.2516    -2.1793     6.3001 H       
  31 H31            3.7442    -0.5859     8.1116 H       
  32 H32            4.5713     1.6706     7.5753 H       
  33 H33            4.9066     2.3333     5.2277 H       
  34 H34            4.4220     0.7369     3.4165 H       
  35 H35            1.3852     2.9853     0.0049 H       
@<TRIPOS>BOND
   1    1    2 1
   2    1   16 1
   3    1   17 1
   4    1   18 1
   5    2    3 1
   6    2   19 1
   7    2   20 1
   8    3    4 1
   9    3   21 1
  10    4    5 1
  11    4    7 1
  12    4   22 1
  13    5    6 1
  14    5    8 1
  15    5   23 1
  16    6    7 1
  17    6   24 1
  18    6   25 1
  19    7   26 1
  20    7   27 1
  21    8    9 1
  22    9   10 1
  23    9   28 1
  24    9   29 1
  25   10   11 ar
  26   10   15 ar
  27   11   12 ar
  28   11   30 1
  29   12   13 ar
  30   12   31 1
  31   13   14 ar
  32   13   32 1
  33   14   15 ar
  34   14   33 1
  35   15   34 1
  36   16   35 1

#	End of record

