#	Name: ASD01916634
#	Creating user name:	WinNT
#	Creation time:	15. 06. 2019 20:07

#	Modifying user name:	WinNT
#	Modification time:	15. 06. 2019 20:07

#	Program:	/corina/corina34_cracker 3.40 0067  02.08.2006

@<TRIPOS>MOLECULE
ASD01916634
  47   51    0    0    0
SMALL
NO_CHARGES


@<TRIPOS>ATOM
   1 C1            -0.0171     1.4098     0.0098 C.ar    
   2 C2             0.0021    -0.0041     0.0020 C.ar    
   3 C3            -1.1908    -0.7268     0.0039 C.ar    
   4 C4            -2.3844    -0.0665     0.0166 C.ar    
   5 C5            -2.4225     1.3362     0.0278 C.ar    
   6 C6            -1.2420     2.0751     0.0193 C.ar    
   7 N7             1.1574     2.0875     0.0022 N.2     
   8 C8             2.3073     1.4824    -0.0014 C.2     
   9 N9             2.4069     0.1125     0.0128 N.am    
  10 C10            1.3132    -0.6701    -0.0042 C.2     
  11 C11           -3.6844     2.0128     0.0428 C.1     
  12 O12            1.4051    -1.8839    -0.0236 O.2     
  13 C13           -4.7191     2.5675     0.0551 C.1     
  14 C14           -5.9810     3.2441     0.0701 C.ar    
  15 N15           -6.0173     4.5731     0.0806 N.ar    
  16 C16           -7.1576     5.2317     0.0941 C.ar    
  17 C17           -8.3668     4.5600     0.0978 C.ar    
  18 C18           -8.3761     3.1717     0.0871 C.ar    
  19 C19           -7.1656     2.5029     0.0677 C.ar    
  20 C20            3.5790     2.3020    -0.0296 C.3     
  21 C21            4.2532     2.2575     1.3446 C.3     
  22 N22            5.0785     1.0710     1.4561 N.3     
  23 C23            4.3298    -0.1836     1.4400 C.3     
  24 C24            3.7552    -0.4739     0.0621 C.3     
  25 C25            5.9534     1.0236     2.6367 C.3     
  26 C26            6.2049    -0.4735     2.9274 C.3     
  27 C27            5.3771    -1.2364     1.8603 C.3     
  28 F28            7.5648    -0.7728     2.7926 F       
  29 F29            5.7595    -0.8003     4.2127 F       
  30 H30           -1.1696    -1.8066    -0.0050 H       
  31 H31           -3.3072    -0.6276     0.0177 H       
  32 H32           -1.2753     3.1546     0.0271 H       
  33 H33           -7.1484     6.3117     0.1028 H       
  34 H34           -9.2957     5.1108     0.1093 H       
  35 H35           -9.3081     2.6261     0.0897 H       
  36 H36           -7.1363     1.4233     0.0589 H       
  37 H37            4.2567     1.8940    -0.7794 H       
  38 H38            3.3391     3.3348    -0.2825 H       
  39 H39            4.8752     3.1437     1.4710 H       
  40 H40            3.4891     2.2406     2.1218 H       
  41 H41            3.5256    -0.1436     2.1747 H       
  42 H42            3.6965    -1.5509    -0.0951 H       
  43 H43            4.3842    -0.0209    -0.7042 H       
  44 H44            6.8963     1.5277     2.4249 H       
  45 H45            5.4599     1.4928     3.4878 H       
  46 H46            4.8943    -2.1108     2.2966 H       
  47 H47            6.0030    -1.5198     1.0140 H       
@<TRIPOS>BOND
   1    1    2 ar
   2    1    7 1
   3    1    6 ar
   4    2    3 ar
   5    2   10 1
   6    3    4 ar
   7    3   30 1
   8    4    5 ar
   9    4   31 1
  10    5    6 ar
  11    5   11 1
  12    6   32 1
  13    7    8 2
  14    8    9 1
  15    8   20 1
  16    9   10 am
  17    9   24 1
  18   10   12 2
  19   11   13 3
  20   13   14 1
  21   14   15 ar
  22   14   19 ar
  23   15   16 ar
  24   16   17 ar
  25   16   33 1
  26   17   18 ar
  27   17   34 1
  28   18   19 ar
  29   18   35 1
  30   19   36 1
  31   20   21 1
  32   20   37 1
  33   20   38 1
  34   21   22 1
  35   21   39 1
  36   21   40 1
  37   22   23 1
  38   22   25 1
  39   23   24 1
  40   23   27 1
  41   23   41 1
  42   24   42 1
  43   24   43 1
  44   25   26 1
  45   25   44 1
  46   25   45 1
  47   26   27 1
  48   26   28 1
  49   26   29 1
  50   27   46 1
  51   27   47 1

#	End of record

