#	Name: ASD01148647
#	Creating user name:	WinNT
#	Creation time:	15. 06. 2019 19:02

#	Modifying user name:	WinNT
#	Modification time:	15. 06. 2019 19:02

#	Program:	/corina/corina34_cracker 3.40 0067  02.08.2006

@<TRIPOS>MOLECULE
ASD01148647
  62   65    0    0    0
SMALL
NO_CHARGES


@<TRIPOS>ATOM
   1 C1            -0.0169     1.4366    -0.0252 C.ar    
   2 C2             0.0192     0.0536    -0.0358 C.ar    
   3 C3            -1.1607    -0.6688    -0.0207 C.ar    
   4 C4            -2.3746    -0.0086     0.0050 C.ar    
   5 C5            -2.4101     1.3734     0.0157 C.ar    
   6 C6            -1.2314     2.0957     0.0064 C.ar    
   7 C7            -3.7341     2.0926     0.0432 C.3     
   8 O8            -4.7239     1.3245     0.7571 O.3     
   9 C9            -3.6494     3.3757     0.9039 C.3     
  10 C10           -4.1234     2.8939     2.2619 C.2     
  11 N11           -4.7055     1.7508     2.1051 N.2     
  12 C12           -3.9494     3.6059     3.5395 C.ar    
  13 C13           -4.4572     3.0250     4.7800 C.ar    
  14 C14           -3.2968     4.8304     3.5735 C.ar    
  15 C15           -3.1194     5.5208     4.7594 C.ar    
  16 C16           -3.5864     5.0188     5.9661 C.ar    
  17 C17           -4.2759     3.7312     5.9927 C.ar    
  18 C18           -3.3827     5.7772     7.2139 C.2     
  19 O19           -3.8845     5.3879     8.2509 O.2     
  20 N20           -2.6402     6.9021     7.2052 N.am    
  21 C21           -4.7632     3.1860     7.1873 C.ar    
  22 C22           -5.1163     1.7892     4.7939 C.ar    
  23 C23           -4.2089     2.4142    -1.3752 C.3     
  24 F24           -4.3419     1.2268    -2.1029 F       
  25 F25           -5.4454     3.0661    -1.3165 F       
  26 F26           -3.2738     3.2438    -2.0032 F       
  27 Cl27           1.5443    -0.7749    -0.0688 Cl      
  28 C28           -2.4378     7.6557     8.4451 C.3     
  29 C29           -1.5780     8.8613     8.1654 C.2     
  30 N30           -1.2579     9.7072     9.1647 N.am    
  31 O31           -1.1741     9.0705     7.0411 O.2     
  32 C32           -0.4221    10.8792     8.8928 C.3     
  33 C33           -0.2106    11.6663    10.1876 C.3     
  34 F34            0.4229    10.8505    11.1311 F       
  35 F35            0.5876    12.7856     9.9280 F       
  36 F36           -1.4491    12.0826    10.6878 F       
  37 C37           -5.5740     1.2835     5.9743 C.ar    
  38 C38           -5.4005     1.9810     7.1668 C.ar    
  39 C39            1.2677     2.2243    -0.0417 C.3     
  40 F40            0.9761     3.5924    -0.0267 F       
  41 F41            2.0296     1.8975     1.0853 F       
  42 F42            1.9901     1.9140    -1.1989 F       
  43 C43           -1.1222    -2.1753    -0.0328 C.3     
  44 F44           -2.4286    -2.6753    -0.0138 F       
  45 F45           -0.4710    -2.6158    -1.1900 F       
  46 F46           -0.4311    -2.6332     1.0941 F       
  47 H47           -3.2957    -0.5724     0.0165 H       
  48 H48           -1.2597     3.1753     0.0147 H       
  49 H49           -2.6228     3.7379     0.9586 H       
  50 H50           -4.3129     4.1476     0.5140 H       
  51 H51           -2.9189     5.2533     2.6544 H       
  52 H52           -2.6061     6.4710     4.7458 H       
  53 H53           -2.2399     7.2126     6.3780 H       
  54 H54           -4.6346     3.7168     8.1190 H       
  55 H55           -5.2614     1.2404     3.8751 H       
  56 H56           -3.4027     7.9801     8.8348 H       
  57 H57           -1.9442     7.0200     9.1802 H       
  58 H58           -1.5809     9.5399    10.0639 H       
  59 H59            0.5428    10.5549     8.5031 H       
  60 H60           -0.9157    11.5149     8.1577 H       
  61 H61           -6.0821     0.3305     5.9840 H       
  62 H62           -5.7759     1.5615     8.0884 H       
@<TRIPOS>BOND
   1    1    2 ar
   2    1   39 1
   3    1    6 ar
   4    2    3 ar
   5    2   27 1
   6    3    4 ar
   7    3   43 1
   8    4    5 ar
   9    4   47 1
  10    5    6 ar
  11    5    7 1
  12    6   48 1
  13    7    8 1
  14    7    9 1
  15    7   23 1
  16    8   11 1
  17    9   10 1
  18    9   49 1
  19    9   50 1
  20   10   11 2
  21   10   12 1
  22   12   13 ar
  23   12   14 ar
  24   13   22 ar
  25   13   17 ar
  26   14   15 ar
  27   14   51 1
  28   15   16 ar
  29   15   52 1
  30   16   17 ar
  31   16   18 1
  32   17   21 ar
  33   18   19 2
  34   18   20 am
  35   20   28 1
  36   20   53 1
  37   21   38 ar
  38   21   54 1
  39   22   37 ar
  40   22   55 1
  41   23   24 1
  42   23   25 1
  43   23   26 1
  44   28   29 1
  45   28   56 1
  46   28   57 1
  47   29   31 2
  48   29   30 am
  49   30   32 1
  50   30   58 1
  51   32   33 1
  52   32   59 1
  53   32   60 1
  54   33   34 1
  55   33   35 1
  56   33   36 1
  57   37   38 ar
  58   37   61 1
  59   38   62 1
  60   39   40 1
  61   39   41 1
  62   39   42 1
  63   43   44 1
  64   43   45 1
  65   43   46 1

#	End of record

