#	Name: ASD08830161
#	Creating user name:	WinNT
#	Creation time:	15. 06. 2019 21:19

#	Modifying user name:	WinNT
#	Modification time:	15. 06. 2019 21:19

#	Program:	/corina/corina34_cracker 3.40 0067  02.08.2006

@<TRIPOS>MOLECULE
ASD08830161
  36   39    0    0    0
SMALL
NO_CHARGES


@<TRIPOS>ATOM
   1 C1            -0.0167     1.3815     0.0096 C.ar    
   2 C2             0.0021    -0.0041     0.0020 C.ar    
   3 C3             2.4390     0.0648    -0.0209 C.ar    
   4 C4             2.3889     1.4715    -0.0133 C.ar    
   5 C5             1.2316    -0.6793    -0.0133 C.ar    
   6 C6             1.1922     2.1053     0.0020 C.ar    
   7 C7             1.2888    -2.0845    -0.0209 C.ar    
   8 C8             2.4978    -2.7097    -0.0354 C.ar    
   9 C9             3.6834    -1.9780    -0.0429 C.ar    
  10 C10            3.6670    -0.6163    -0.0358 C.ar    
  11 C11            0.8094     3.5658     0.0131 C.3     
  12 N12           -0.6565     3.6073     0.0281 N.am    
  13 C13           -1.1302     2.3503     0.0315 C.2     
  14 O14           -2.3088     2.0528     0.0432 O.2     
  15 N15            1.3450     4.2186     1.2152 N.3     
  16 C16            1.0862     5.6655     1.1886 C.3     
  17 C17            2.7825     3.9493     1.3649 C.3     
  18 C18            3.2855     4.5963     2.6580 C.3     
  19 O19            2.9974     5.9968     2.6277 O.3     
  20 C20            1.6062     6.2954     2.4835 C.3     
  21 H21           -0.9236    -0.5604     0.0082 H       
  22 H22            3.3041     2.0449    -0.0193 H       
  23 H23            0.3779    -2.6647    -0.0149 H       
  24 H24            2.5386    -3.7889    -0.0409 H       
  25 H25            4.6296    -2.4985    -0.0540 H       
  26 H26            4.5942    -0.0627    -0.0418 H       
  27 H27            1.1888     4.0591    -0.8818 H       
  28 H28           -1.1969     4.4128     0.0379 H       
  29 H29            1.5982     6.1113     0.3358 H       
  30 H30            0.0139     5.8420     1.1031 H       
  31 H31            2.9485     2.8728     1.4080 H       
  32 H32            3.3216     4.3676     0.5149 H       
  33 H33            2.7849     4.1401     3.5119 H       
  34 H34            4.3619     4.4480     2.7444 H       
  35 H35            1.4681     7.3759     2.4437 H       
  36 H36            1.0567     5.8886     3.3324 H       
@<TRIPOS>BOND
   1    1    2 ar
   2    1    6 ar
   3    1   13 1
   4    2    5 ar
   5    2   21 1
   6    3    4 ar
   7    3    5 ar
   8    3   10 ar
   9    4    6 ar
  10    4   22 1
  11    5    7 ar
  12    6   11 1
  13    7    8 ar
  14    7   23 1
  15    8    9 ar
  16    8   24 1
  17    9   10 ar
  18    9   25 1
  19   10   26 1
  20   11   12 1
  21   11   15 1
  22   11   27 1
  23   12   13 am
  24   12   28 1
  25   13   14 2
  26   15   16 1
  27   15   17 1
  28   16   20 1
  29   16   29 1
  30   16   30 1
  31   17   18 1
  32   17   31 1
  33   17   32 1
  34   18   19 1
  35   18   33 1
  36   18   34 1
  37   19   20 1
  38   20   35 1
  39   20   36 1

#	End of record

