#	Name: ASD01320064
#	Creating user name:	WinNT
#	Creation time:	15. 06. 2019 19:15

#	Modifying user name:	WinNT
#	Modification time:	15. 06. 2019 19:15

#	Program:	/corina/corina34_cracker 3.40 0067  02.08.2006

@<TRIPOS>MOLECULE
ASD01320064
 143  148    0    0    0
SMALL
NO_CHARGES


@<TRIPOS>ATOM
   1 C1             1.8819    -2.8785     4.8258 C.3     
   2 C2             1.6962    -4.3693     4.5363 C.3     
   3 C3             0.2077    -4.6714     4.3516 C.3     
   4 C4             0.0220    -6.1623     4.0621 C.3     
   5 C5            -1.4665    -6.4643     3.8773 C.3     
   6 C6            -1.6522    -7.9552     3.5878 C.3     
   7 C7            -3.1407    -8.2572     3.4031 C.3     
   8 C8            -3.3264    -9.7481     3.1136 C.3     
   9 C9            -4.8149   -10.0501     2.9288 C.3     
  10 C10           -5.0006   -11.5410     2.6394 C.3     
  11 C11           -6.4891   -11.8431     2.4546 C.3     
  12 C12           -6.6748   -13.3339     2.1651 C.3     
  13 C13           -8.1633   -13.6360     1.9804 C.3     
  14 C14           -8.3491   -15.1268     1.6909 C.3     
  15 C15           -9.8375   -15.4289     1.5061 C.3     
  16 C16          -10.0205   -16.8973     1.2210 C.2     
  17 O17           -9.0590   -17.6273     1.1707 O.2     
  18 O18          -11.2515   -17.3942     1.0229 O.3     
  19 C19          -11.3524   -18.8174     0.7532 C.3     
  20 C20          -12.7995   -19.1905     0.5590 C.2     
  21 N21          -13.2833   -20.4092     0.2940 N.2     
  22 N22          -14.5638   -20.3366     0.1958 N.2     
  23 N23          -14.9555   -19.1249     0.3834 N.pl3   
  24 C24          -13.8659   -18.3595     0.6242 C.2     
  25 C25          -16.3430   -18.6561     0.3477 C.3     
  26 C26          -16.9710   -19.0451    -0.9658 C.2     
  27 O27          -16.3259   -19.6517    -1.7878 O.2     
  28 O28          -18.2472   -18.7177    -1.2226 O.3     
  29 C29          -18.7878   -19.1258    -2.5112 C.3     
  30 C30          -19.4099   -20.5098    -2.3823 C.3     
  31 C31          -20.0420   -20.9336    -3.7046 C.3     
  32 C32          -21.1803   -19.9624    -4.0685 C.3     
  33 C33          -20.6000   -18.5585    -4.1699 C.3     
  34 C34          -19.8002   -18.0806    -2.9814 C.3     
  35 C35          -20.6761   -17.6385    -1.8102 C.3     
  36 C36          -18.9748   -16.8449    -3.4200 C.3     
  37 C37          -21.6981   -17.5817    -4.5901 C.3     
  38 C38          -22.0784   -17.9407    -6.0382 C.3     
  39 C39          -22.6413   -19.3574    -6.1043 C.3     
  40 C40          -21.7214   -20.3713    -5.4390 C.3     
  41 C41          -22.4231   -21.7275    -5.3701 C.3     
  42 C42          -22.9269   -22.1005    -6.7379 C.2     
  43 C43          -23.1194   -21.2448    -7.6976 C.2     
  44 C44          -22.8667   -19.7671    -7.5639 C.3     
  45 C45          -21.5763   -19.4879    -8.3501 C.3     
  46 C46          -23.9720   -18.9443    -8.2095 C.3     
  47 C47          -24.3529   -19.4748    -9.5922 C.3     
  48 C48          -24.7776   -20.9428    -9.5066 C.3     
  49 C49          -23.5730   -21.7635    -9.0499 C.3     
  50 C50          -23.9157   -23.2429    -8.9835 C.3     
  51 C51          -24.4123   -23.7532   -10.3354 C.3     
  52 C52          -23.2685   -23.7424   -11.3522 C.3     
  53 C53          -24.8941   -25.2030   -10.1643 C.3     
  54 C54          -25.5745   -22.9114   -10.8504 C.3     
  55 C55          -25.2313   -21.4270   -10.8832 C.3     
  56 C56          -25.9133   -21.0783    -8.5286 C.2     
  57 O57          -25.7901   -21.7808    -7.5533 O.2     
  58 O58          -27.0632   -20.4189    -8.7398 O.3     
  59 C59          -24.0152   -19.3616    -5.4133 C.3     
  60 C60          -22.2529   -20.0772    -2.9909 C.3     
  61 H61            2.9424    -2.6633     4.9574 H       
  62 H62            1.4937    -2.2951     3.9909 H       
  63 H63            1.3421    -2.6150     5.7353 H       
  64 H64            2.2360    -4.6329     3.6268 H       
  65 H65            2.0844    -4.9527     5.3712 H       
  66 H66           -0.3321    -4.4079     5.2611 H       
  67 H67           -0.1805    -4.0880     3.5167 H       
  68 H68            0.5618    -6.4258     3.1526 H       
  69 H69            0.4102    -6.7456     4.8970 H       
  70 H70           -2.0063    -6.2008     4.7868 H       
  71 H71           -1.8547    -5.8810     3.0424 H       
  72 H72           -1.1124    -8.2187     2.6783 H       
  73 H73           -1.2640    -8.5385     4.4227 H       
  74 H74           -3.6805    -7.9937     4.3126 H       
  75 H75           -3.5289    -7.6739     2.5682 H       
  76 H76           -2.7866   -10.0116     2.2041 H       
  77 H77           -2.9382   -10.3314     3.9485 H       
  78 H78           -5.3547    -9.7866     3.8384 H       
  79 H79           -5.2031    -9.4668     2.0939 H       
  80 H80           -4.4608   -11.8045     1.7298 H       
  81 H81           -4.6124   -12.1243     3.4743 H       
  82 H82           -7.0289   -11.5795     3.3641 H       
  83 H83           -6.8773   -11.2597     1.6197 H       
  84 H84           -6.1350   -13.5974     1.2556 H       
  85 H85           -6.2866   -13.9173     3.0000 H       
  86 H86           -8.7031   -13.3724     2.8899 H       
  87 H87           -8.5515   -13.0526     1.1455 H       
  88 H88           -7.8092   -15.3903     0.7814 H       
  89 H89           -7.9608   -15.7102     2.5258 H       
  90 H90          -10.3774   -15.1653     2.4157 H       
  91 H91          -10.2258   -14.8455     0.6712 H       
  92 H92          -10.7912   -19.0567    -0.1500 H       
  93 H93          -10.9428   -19.3765     1.5944 H       
  94 H94          -13.8498   -17.2978     0.8215 H       
  95 H95          -16.9013   -19.1106     1.1661 H       
  96 H96          -16.3628   -17.5713     0.4527 H       
  97 H97          -17.9643   -19.1678    -3.2331 H       
  98 H98          -18.6157   -21.2290    -2.1314 H       
  99 H99          -20.1337   -20.5301    -1.5732 H       
 100 H100         -19.2938   -20.9127    -4.4960 H       
 101 H101         -20.4503   -21.9393    -3.6112 H       
 102 H102         -19.8856   -18.5916    -5.0335 H       
 103 H103         -21.1997   -18.5027    -1.4015 H       
 104 H104         -20.0506   -17.1933    -1.0364 H       
 105 H105         -21.4029   -16.9039    -2.1571 H       
 106 H106         -19.6497   -16.0588    -3.7585 H       
 107 H107         -18.3881   -16.4817    -2.5763 H       
 108 H108         -18.3061   -17.1250    -4.2339 H       
 109 H109         -22.5626   -17.6386    -3.9478 H       
 110 H110         -21.3155   -16.5589    -4.5903 H       
 111 H111         -22.8303   -17.2298    -6.3839 H       
 112 H112         -21.1754   -17.8278    -6.6324 H       
 113 H113         -20.8309   -20.5046    -6.0901 H       
 114 H114         -21.6982   -22.4891    -5.0558 H       
 115 H115         -23.2522   -21.7350    -4.6727 H       
 116 H116         -23.1370   -23.1452    -6.9198 H       
 117 H117         -20.7577   -20.0667    -7.9222 H       
 118 H118         -21.7170   -19.7733    -9.3926 H       
 119 H119         -21.3387   -18.4256    -8.2931 H       
 120 H120         -24.8698   -18.8778    -7.6060 H       
 121 H121         -23.6005   -17.9123    -8.3391 H       
 122 H122         -25.1943   -18.8904    -9.9785 H       
 123 H123         -23.5170   -19.3779   -10.2811 H       
 124 H124         -22.7534   -21.6149    -9.7663 H       
 125 H125         -23.0108   -23.8058    -8.7132 H       
 126 H126         -24.6680   -23.4330    -8.2185 H       
 127 H127         -22.4631   -24.3869   -10.9999 H       
 128 H128         -23.6325   -24.1078   -12.3124 H       
 129 H129         -22.8953   -22.7249   -11.4684 H       
 130 H130         -25.7041   -25.2331    -9.4355 H       
 131 H131         -25.2521   -25.5823   -11.1214 H       
 132 H132         -24.0676   -25.8216    -9.8145 H       
 133 H133         -25.8169   -23.2396   -11.8711 H       
 134 H134         -26.4568   -23.0863   -10.2336 H       
 135 H135         -26.1191   -20.8576   -11.1815 H       
 136 H136         -24.4433   -21.2358   -11.6129 H       
 137 H137         -27.7640   -20.5372    -8.0840 H       
 138 H138         -24.6989   -18.7124    -5.9602 H       
 139 H139         -24.4116   -20.3769    -5.3990 H       
 140 H140         -23.9089   -18.9986    -4.3911 H       
 141 H141         -21.7896   -19.9985    -2.0074 H       
 142 H142         -22.9802   -19.2749    -3.1152 H       
 143 H143         -22.7555   -21.0403    -3.0797 H       
@<TRIPOS>BOND
   1    1    2 1
   2    1   61 1
   3    1   62 1
   4    1   63 1
   5    2    3 1
   6    2   64 1
   7    2   65 1
   8    3    4 1
   9    3   66 1
  10    3   67 1
  11    4    5 1
  12    4   68 1
  13    4   69 1
  14    5    6 1
  15    5   70 1
  16    5   71 1
  17    6    7 1
  18    6   72 1
  19    6   73 1
  20    7    8 1
  21    7   74 1
  22    7   75 1
  23    8    9 1
  24    8   76 1
  25    8   77 1
  26    9   10 1
  27    9   78 1
  28    9   79 1
  29   10   11 1
  30   10   80 1
  31   10   81 1
  32   11   12 1
  33   11   82 1
  34   11   83 1
  35   12   13 1
  36   12   84 1
  37   12   85 1
  38   13   14 1
  39   13   86 1
  40   13   87 1
  41   14   15 1
  42   14   88 1
  43   14   89 1
  44   15   16 1
  45   15   90 1
  46   15   91 1
  47   16   17 2
  48   16   18 1
  49   18   19 1
  50   19   20 1
  51   19   92 1
  52   19   93 1
  53   20   21 1
  54   20   24 2
  55   21   22 2
  56   22   23 1
  57   23   24 1
  58   23   25 1
  59   24   94 1
  60   25   26 1
  61   25   95 1
  62   25   96 1
  63   26   27 2
  64   26   28 1
  65   28   29 1
  66   29   30 1
  67   29   34 1
  68   29   97 1
  69   30   31 1
  70   30   98 1
  71   30   99 1
  72   31   32 1
  73   31  100 1
  74   31  101 1
  75   32   33 1
  76   32   60 1
  77   32   40 1
  78   33   34 1
  79   33   37 1
  80   33  102 1
  81   34   35 1
  82   34   36 1
  83   35  103 1
  84   35  104 1
  85   35  105 1
  86   36  106 1
  87   36  107 1
  88   36  108 1
  89   37   38 1
  90   37  109 1
  91   37  110 1
  92   38   39 1
  93   38  111 1
  94   38  112 1
  95   39   44 1
  96   39   59 1
  97   39   40 1
  98   40   41 1
  99   40  113 1
 100   41   42 1
 101   41  114 1
 102   41  115 1
 103   42   43 2
 104   42  116 1
 105   43   44 1
 106   43   49 1
 107   44   45 1
 108   44   46 1
 109   45  117 1
 110   45  118 1
 111   45  119 1
 112   46   47 1
 113   46  120 1
 114   46  121 1
 115   47   48 1
 116   47  122 1
 117   47  123 1
 118   48   56 1
 119   48   49 1
 120   48   55 1
 121   49   50 1
 122   49  124 1
 123   50   51 1
 124   50  125 1
 125   50  126 1
 126   51   52 1
 127   51   53 1
 128   51   54 1
 129   52  127 1
 130   52  128 1
 131   52  129 1
 132   53  130 1
 133   53  131 1
 134   53  132 1
 135   54   55 1
 136   54  133 1
 137   54  134 1
 138   55  135 1
 139   55  136 1
 140   56   57 2
 141   56   58 1
 142   58  137 1
 143   59  138 1
 144   59  139 1
 145   59  140 1
 146   60  141 1
 147   60  142 1
 148   60  143 1

#	End of record

