#	Name: ASD01813077
#	Creating user name:	WinNT
#	Creation time:	15. 06. 2019 19:29

#	Modifying user name:	WinNT
#	Modification time:	15. 06. 2019 19:29

#	Program:	/corina/corina34_cracker 3.40 0067  02.08.2006

@<TRIPOS>MOLECULE
ASD01813077
  57   61    0    0    0
SMALL
NO_CHARGES


@<TRIPOS>ATOM
   1 C1            -0.0166     1.3764     0.0096 C.ar    
   2 C2             0.0021    -0.0041     0.0020 C.ar    
   3 C3             1.2089    -0.6872    -0.0127 C.ar    
   4 C4             2.3941     0.0075    -0.0203 C.ar    
   5 C5             2.3941     1.4057    -0.0132 C.ar    
   6 C6             1.1719     2.0915     0.0021 C.ar    
   7 C7             3.8413    -0.4177    -0.0364 C.3     
   8 N8             4.6313     0.8189    -0.0378 N.am    
   9 C9             3.7915     1.8684    -0.0244 C.2     
  10 C10            6.0942     0.8968    -0.0511 C.3     
  11 C11            6.5825     0.9304    -1.4764 C.ar    
  12 O12            1.1515     3.4479     0.0091 O.3     
  13 O13            4.1370     3.0341    -0.0215 O.2     
  14 C14            6.7421     2.1434    -2.1218 C.ar    
  15 C15            7.1894     2.1798    -3.4270 C.ar    
  16 C16            7.4804     0.9922    -4.0944 C.ar    
  17 C17            7.3179    -0.2266    -3.4397 C.ar    
  18 C18            6.8750    -0.2515    -2.1327 C.ar    
  19 C19            8.2816    -0.0558    -6.2669 C.2     
  20 C20            7.9615     1.0253    -5.4986 C.2     
  21 C21            8.1704     2.1785    -6.2799 C.2     
  22 N22            8.5945     1.8003    -7.4565 N.2     
  23 N23            8.6726     0.4024    -7.4731 N.pl3   
  24 C24            9.1050    -0.4203    -8.6055 C.3     
  25 C25           -0.1314     4.0773     0.0243 C.3     
  26 C26            0.0461     5.5969     0.0302 C.3     
  27 C27           -1.3067     6.2606     0.0462 C.ar    
  28 C28           -1.9634     6.4659     1.2480 C.ar    
  29 C29           -3.2062     7.0757     1.2611 C.ar    
  30 C30           -3.7901     7.4790     0.0750 C.ar    
  31 C31           -3.1339     7.2732    -1.1240 C.ar    
  32 C32           -1.8899     6.6698    -1.1378 C.ar    
  33 F33           -1.3919     6.0709     2.4067 F       
  34 H34           -0.9604     1.9015     0.0169 H       
  35 H35           -0.9272    -0.5544     0.0079 H       
  36 H36            1.2170    -1.7672    -0.0179 H       
  37 H37            4.0688    -1.0067     0.8521 H       
  38 H38            4.0515    -0.9977    -0.9350 H       
  39 H39            6.4145     1.8024     0.4641 H       
  40 H40            6.5091     0.0250     0.4546 H       
  41 H41            6.5159     3.0635    -1.6036 H       
  42 H42            7.3133     3.1274    -3.9301 H       
  43 H43            7.5421    -1.1503    -3.9526 H       
  44 H44            6.7526    -1.1957    -1.6229 H       
  45 H45            8.2347    -1.0909    -5.9624 H       
  46 H46            8.0079     3.1978    -5.9619 H       
  47 H47            8.2417    -0.6750    -9.2202 H       
  48 H48            9.8260     0.1360    -9.2044 H       
  49 H49            9.5691    -1.3341    -8.2344 H       
  50 H50           -0.6922     3.7805    -0.8620 H       
  51 H51           -0.6756     3.7715     0.9178 H       
  52 H52            0.6070     5.8937     0.9165 H       
  53 H53            0.5903     5.9027    -0.8633 H       
  54 H54           -3.7194     7.2360     2.1978 H       
  55 H55           -4.7596     7.9547     0.0850 H       
  56 H56           -3.5912     7.5880    -2.0504 H       
  57 H57           -1.3758     6.5141    -2.0747 H       
@<TRIPOS>BOND
   1    1    2 ar
   2    1    6 ar
   3    1   34 1
   4    2    3 ar
   5    2   35 1
   6    3    4 ar
   7    3   36 1
   8    4    7 1
   9    4    5 ar
  10    5    6 ar
  11    5    9 1
  12    6   12 1
  13    7    8 1
  14    7   37 1
  15    7   38 1
  16    8    9 am
  17    8   10 1
  18    9   13 2
  19   10   11 1
  20   10   39 1
  21   10   40 1
  22   11   14 ar
  23   11   18 ar
  24   12   25 1
  25   14   15 ar
  26   14   41 1
  27   15   16 ar
  28   15   42 1
  29   16   17 ar
  30   16   20 1
  31   17   18 ar
  32   17   43 1
  33   18   44 1
  34   19   20 2
  35   19   23 1
  36   19   45 1
  37   20   21 1
  38   21   22 2
  39   21   46 1
  40   22   23 1
  41   23   24 1
  42   24   47 1
  43   24   48 1
  44   24   49 1
  45   25   26 1
  46   25   50 1
  47   25   51 1
  48   26   27 1
  49   26   52 1
  50   26   53 1
  51   27   28 ar
  52   27   32 ar
  53   28   29 ar
  54   28   33 1
  55   29   30 ar
  56   29   54 1
  57   30   31 ar
  58   30   55 1
  59   31   32 ar
  60   31   56 1
  61   32   57 1

#	End of record

