#	Name: ASD09116316
#	Creating user name:	WinNT
#	Creation time:	15. 06. 2019 21:21

#	Modifying user name:	WinNT
#	Modification time:	15. 06. 2019 21:21

#	Program:	/corina/corina34_cracker 3.40 0067  02.08.2006

@<TRIPOS>MOLECULE
ASD09116316
  78   85    0    0    0
SMALL
NO_CHARGES


@<TRIPOS>ATOM
   1 N1             0.1659     1.1530    -0.6753 N.2     
   2 N2             0.2427    -0.0999    -1.3049 N.pl3   
   3 C3             1.3846     1.6346    -0.6300 C.2     
   4 N4             2.2242     0.7585    -1.1941 N.2     
   5 C5             1.5539    -0.2954    -1.6078 C.2     
   6 N6             2.0871    -1.4032    -2.2378 N.pl3   
   7 C7            -0.8141    -0.9701    -1.5663 C.ar    
   8 N8             1.7479     2.8644    -0.0817 N.pl3   
   9 C9             3.0995     3.2195     0.0072 C.ar    
  10 C10            3.4724     4.5555    -0.0610 C.ar    
  11 C11            4.0667     2.2361     0.1691 C.ar    
  12 C12            5.3994     2.5862     0.2567 C.ar    
  13 C13            5.7727     3.9218     0.1833 C.ar    
  14 N14           -0.9577    -1.5253    -2.7688 N.ar    
  15 C15           -1.9532    -2.3499    -3.0241 C.ar    
  16 N16           -2.8589    -2.6593    -2.1161 N.ar    
  17 C17           -2.7895    -2.1374    -0.8965 C.ar    
  18 C18           -1.7375    -1.2822    -0.5782 C.ar    
  19 N19            7.1237     4.2768     0.2725 N.3     
  20 C20            7.9188     3.5849    -0.7516 C.3     
  21 C21            4.8052     4.9057     0.0266 C.ar    
  22 C22           -3.8123    -2.4171     0.1362 C.ar    
  23 C23           -4.3818    -1.3459     0.8273 C.ar    
  24 C24           -3.9830     0.0587     0.4666 C.3     
  25 C25           -2.6109     0.4120     1.0347 C.3     
  26 C26           -1.6203    -0.7352     0.8149 C.3     
  27 C27           -4.2055    -3.7190     0.4256 C.ar    
  28 C28           -5.1464    -3.9462     1.4113 C.ar    
  29 C29           -5.6921    -2.8836     2.1084 C.ar    
  30 C30           -5.3104    -1.5853     1.8171 C.ar    
  31 C31            7.2933     5.7331     0.1718 C.3     
  32 C32            8.7716     6.0855     0.3531 C.3     
  33 N33            9.5667     5.3936    -0.6709 N.3     
  34 C34            9.3971     3.9373    -0.5702 C.3     
  35 C35           10.9846     5.7661    -0.5773 C.3     
  36 C36           11.8336     4.9315    -1.5842 C.3     
  37 C37           11.1864     7.2338    -1.0185 C.3     
  38 C38           12.1383     7.1477    -2.2505 C.3     
  39 C39           13.3123     5.2557    -1.2106 C.3     
  40 C40           13.5141     6.7233    -1.6519 C.3     
  41 C41           11.6680     5.7920    -2.8863 C.3     
  42 H42            3.0403    -1.4504    -2.4116 H       
  43 H43            1.5084    -2.1339    -2.5063 H       
  44 H44            1.0643     3.4737     0.2382 H       
  45 H45            2.7199     5.3206    -0.1828 H       
  46 H46            3.7763     1.1974     0.2269 H       
  47 H47            6.1515     1.8215     0.3826 H       
  48 H48           -2.0304    -2.7866    -4.0088 H       
  49 H49            7.7864     2.5078    -0.6484 H       
  50 H50            7.5889     3.8989    -1.7418 H       
  51 H51            5.0955     5.9443    -0.0308 H       
  52 H52           -3.9546     0.1537    -0.6188 H       
  53 H53           -4.7231     0.7528     0.8649 H       
  54 H54           -2.2382     1.3092     0.5406 H       
  55 H55           -2.7036     0.6040     2.1036 H       
  56 H56           -1.8272    -1.5296     1.5320 H       
  57 H57           -0.6061    -0.3677     0.9712 H       
  58 H58           -3.7771    -4.5486    -0.1172 H       
  59 H59           -5.4562    -4.9556     1.6382 H       
  60 H60           -6.4205    -3.0678     2.8842 H       
  61 H61           -5.7395    -0.7602     2.3661 H       
  62 H62            6.9563     6.0716    -0.8080 H       
  63 H63            6.7050     6.2223     0.9481 H       
  64 H64            8.9040     7.1626     0.2500 H       
  65 H65            9.1015     5.7715     1.3434 H       
  66 H66            9.7341     3.5988     0.4095 H       
  67 H67            9.9854     3.4481    -1.3465 H       
  68 H68           11.3488     5.6197     0.4396 H       
  69 H69           11.5816     3.8736    -1.6576 H       
  70 H70           10.2335     7.6789    -1.3049 H       
  71 H71           11.6511     7.8106    -0.2188 H       
  72 H72           12.1517     8.0199    -2.9042 H       
  73 H73           13.4628     5.1580    -0.1355 H       
  74 H74           13.9936     4.5991    -1.7517 H       
  75 H75           14.2946     6.7883    -2.4099 H       
  76 H76           13.7638     7.3472    -0.7937 H       
  77 H77           12.3346     5.4609    -3.6826 H       
  78 H78           10.6309     5.8346    -3.2190 H       
@<TRIPOS>BOND
   1    1    2 1
   2    1    3 2
   3    2    7 1
   4    2    5 1
   5    3    4 1
   6    3    8 1
   7    4    5 2
   8    5    6 1
   9    6   42 1
  10    6   43 1
  11    7   14 ar
  12    7   18 ar
  13    8    9 1
  14    8   44 1
  15    9   10 ar
  16    9   11 ar
  17   10   21 ar
  18   10   45 1
  19   11   12 ar
  20   11   46 1
  21   12   13 ar
  22   12   47 1
  23   13   21 ar
  24   13   19 1
  25   14   15 ar
  26   15   16 ar
  27   15   48 1
  28   16   17 ar
  29   17   18 ar
  30   17   22 1
  31   18   26 1
  32   19   31 1
  33   19   20 1
  34   20   34 1
  35   20   49 1
  36   20   50 1
  37   21   51 1
  38   22   23 ar
  39   22   27 ar
  40   23   24 1
  41   23   30 ar
  42   24   25 1
  43   24   52 1
  44   24   53 1
  45   25   26 1
  46   25   54 1
  47   25   55 1
  48   26   56 1
  49   26   57 1
  50   27   28 ar
  51   27   58 1
  52   28   29 ar
  53   28   59 1
  54   29   30 ar
  55   29   60 1
  56   30   61 1
  57   31   32 1
  58   31   62 1
  59   31   63 1
  60   32   33 1
  61   32   64 1
  62   32   65 1
  63   33   34 1
  64   33   35 1
  65   34   66 1
  66   34   67 1
  67   35   36 1
  68   35   37 1
  69   35   68 1
  70   36   39 1
  71   36   41 1
  72   36   69 1
  73   37   38 1
  74   37   70 1
  75   37   71 1
  76   38   40 1
  77   38   41 1
  78   38   72 1
  79   39   40 1
  80   39   73 1
  81   39   74 1
  82   40   75 1
  83   40   76 1
  84   41   77 1
  85   41   78 1

#	End of record

