#	Name: ASD01914147
#	Creating user name:	WinNT
#	Creation time:	15. 06. 2019 20:02

#	Modifying user name:	WinNT
#	Modification time:	15. 06. 2019 20:02

#	Program:	/corina/corina34_cracker 3.40 0067  02.08.2006

@<TRIPOS>MOLECULE
ASD01914147
  46   49    0    0    0
SMALL
NO_CHARGES


@<TRIPOS>ATOM
   1 C1             2.7976     0.0281     1.2614 C.ar    
   2 C2             2.2042    -1.2696     0.8522 C.2     
   3 N3             2.8587    -2.3083     0.2856 N.2     
   4 C4             1.9519    -3.2342     0.0960 C.2     
   5 O5             0.7910    -2.7453     0.5432 O.3     
   6 N6             0.9521    -1.6243     0.9774 N.2     
   7 C7             2.1754    -4.5948    -0.5121 C.3     
   8 C8             1.7914    -5.6762     0.5005 C.3     
   9 C9             0.3256    -5.5018     0.9044 C.3     
  10 C10           -0.5632    -5.6607    -0.3331 C.3     
  11 N11           -0.1064    -4.7221    -1.3671 N.am    
  12 C12            1.3076    -4.7435    -1.7656 C.3     
  13 C13           -2.0156    -5.3509     0.0353 C.3     
  14 C14           -0.9681    -3.8580    -1.9392 C.2     
  15 C15           -0.4713    -2.8338    -2.8807 C.ar    
  16 C16           -1.2743    -2.4082    -3.9409 C.ar    
  17 C17           -0.8058    -1.4522    -4.8165 C.ar    
  18 C18            0.4603    -0.9134    -4.6459 C.ar    
  19 C19            1.2620    -1.3327    -3.5952 C.ar    
  20 C20            0.8009    -2.2836    -2.7102 C.ar    
  21 O21           -2.1543    -3.9215    -1.6805 O.2     
  22 N22            4.0927     0.2455     1.0768 N.ar    
  23 C23            4.6591     1.3822     1.4249 C.ar    
  24 C24            3.9153     2.3995     2.0016 C.ar    
  25 C25            2.5547     2.2116     2.2122 C.ar    
  26 C26            1.9878     1.0081     1.8303 C.ar    
  27 F27            0.9147     0.0233    -5.5070 F       
  28 F28            4.5069     3.5613     2.3556 F       
  29 H29            3.2260    -4.7050    -0.7811 H       
  30 H30            1.9298    -6.6597     0.0516 H       
  31 H31            2.4243    -5.5880     1.3836 H       
  32 H32            0.0593    -6.2578     1.6431 H       
  33 H33            0.1814    -4.5091     1.3309 H       
  34 H34           -0.4889    -6.6816    -0.7077 H       
  35 H35            1.5073    -3.9176    -2.4484 H       
  36 H36            1.5345    -5.6896    -2.2571 H       
  37 H37           -2.1102    -4.2934     0.2818 H       
  38 H38           -2.6628    -5.5864    -0.8095 H       
  39 H39           -2.3083    -5.9523     0.8960 H       
  40 H40           -2.2605    -2.8275    -4.0749 H       
  41 H41           -1.4259    -1.1226    -5.6370 H       
  42 H42            2.2475    -0.9100    -3.4671 H       
  43 H43            1.4259    -2.6092    -1.8919 H       
  44 H44            5.7169     1.5234     1.2591 H       
  45 H45            1.9527     2.9883     2.6601 H       
  46 H46            0.9333     0.8282     1.9792 H       
@<TRIPOS>BOND
   1    1    2 1
   2    1   22 ar
   3    1   26 ar
   4    2    3 1
   5    2    6 2
   6    3    4 2
   7    4    5 1
   8    4    7 1
   9    5    6 1
  10    7    8 1
  11    7   12 1
  12    7   29 1
  13    8    9 1
  14    8   30 1
  15    8   31 1
  16    9   10 1
  17    9   32 1
  18    9   33 1
  19   10   11 1
  20   10   13 1
  21   10   34 1
  22   11   12 1
  23   11   14 am
  24   12   35 1
  25   12   36 1
  26   13   37 1
  27   13   38 1
  28   13   39 1
  29   14   15 1
  30   14   21 2
  31   15   16 ar
  32   15   20 ar
  33   16   17 ar
  34   16   40 1
  35   17   18 ar
  36   17   41 1
  37   18   19 ar
  38   18   27 1
  39   19   20 ar
  40   19   42 1
  41   20   43 1
  42   22   23 ar
  43   23   24 ar
  44   23   44 1
  45   24   25 ar
  46   24   28 1
  47   25   26 ar
  48   25   45 1
  49   26   46 1

#	End of record

