#	Name: ASD01140049
#	Creating user name:	WinNT
#	Creation time:	15. 06. 2019 18:59

#	Modifying user name:	WinNT
#	Modification time:	15. 06. 2019 18:59

#	Program:	/corina/corina34_cracker 3.40 0067  02.08.2006

@<TRIPOS>MOLECULE
ASD01140049
  57   60    0    0    0
SMALL
NO_CHARGES


@<TRIPOS>ATOM
   1 C1             0.0796     1.0684     0.1812 C.3     
   2 C2             0.2110    -0.4539     0.1877 C.3     
   3 C3             1.0746    -0.9104     1.3645 C.3     
   4 C4             2.4500    -0.2478     1.2791 C.3     
   5 C5             2.3051     1.2709     1.3191 C.3     
   6 C6             1.4607     1.7237     0.1290 C.3     
   7 C7             3.3480    -0.7468     2.4078 C.3     
   8 C8             4.7305    -0.0903     2.3058 C.3     
   9 C9             4.7486     0.8326     1.0874 C.3     
  10 C10            3.6951     1.9225     1.2658 C.3     
  11 C11            6.1036     1.3932     0.7977 C.3     
  12 C12            6.1742     2.9303     0.9203 C.3     
  13 C13            5.1809     3.5643    -0.0130 C.3     
  14 C14            3.7724     2.9777     0.1800 C.3     
  15 C15            7.2769     0.9705     1.6954 C.3     
  16 C16            8.3944     1.9344     1.1966 C.3     
  17 C17            7.6668     3.1838     0.6336 C.3     
  18 O18            0.7963    -0.8931    -1.0391 O.3     
  19 H19            2.8981    -0.5365     0.3190 H       
  20 C20            1.6323     1.7158     2.6213 C.3     
  21 C21            5.9565     3.4223     2.3573 C.3     
  22 C22            7.9438     3.3282    -0.8340 C.2     
  23 O23            7.1812     2.8548    -1.6418 O.2     
  24 C24            9.1737     4.0640    -1.2998 C.3     
  25 H25           -0.4841     1.3687    -0.7109 H       
  26 H26           -0.4713     1.3993     1.0578 H       
  27 H27           -0.7854    -0.8966     0.2849 H       
  28 H28            0.5851    -0.6724     2.3035 H       
  29 H29            1.2035    -1.9974     1.3056 H       
  30 H30            1.9576     1.4346    -0.7996 H       
  31 H31            1.3448     2.8086     0.1534 H       
  32 H32            2.9067    -0.5292     3.3761 H       
  33 H33            3.4663    -1.8312     2.3153 H       
  34 H34            4.9275     0.4867     3.2078 H       
  35 H35            5.4910    -0.8622     2.1897 H       
  36 H36            4.4561     0.2217     0.2116 H       
  37 H37            3.8055     2.3890     2.2501 H       
  38 H38            6.3720     1.1104    -0.2443 H       
  39 H39            5.1442     4.6492     0.1682 H       
  40 H40            5.4632     3.4152    -1.0626 H       
  41 H41            3.4490     2.5420    -0.7748 H       
  42 H42            3.0801     3.7966     0.4177 H       
  43 H43            7.0686     1.1089     2.7464 H       
  44 H44            7.5577    -0.0649     1.4894 H       
  45 H45            9.0370     2.2200     2.0281 H       
  46 H46            8.9754     1.4543     0.4108 H       
  47 H47            7.9885     4.0756     1.1734 H       
  48 H48            0.2854    -0.6567    -1.8254 H       
  49 H49            2.2373     1.3970     3.4701 H       
  50 H50            1.5387     2.8018     2.6293 H       
  51 H51            0.6423     1.2653     2.6912 H       
  52 H52            6.6145     2.8751     3.0323 H       
  53 H53            6.1815     4.4873     2.4148 H       
  54 H54            4.9189     3.2541     2.6457 H       
  55 H55            9.7354     4.4169    -0.4349 H       
  56 H56            9.7979     3.3920    -1.8888 H       
  57 H57            8.8774     4.9154    -1.9127 H       
@<TRIPOS>BOND
   1    1    2 1
   2    1    6 1
   3    1   25 1
   4    1   26 1
   5    2    3 1
   6    2   18 1
   7    2   27 1
   8    3    4 1
   9    3   28 1
  10    3   29 1
  11    4    5 1
  12    4    7 1
  13    4   19 1
  14    5    6 1
  15    5   20 1
  16    5   10 1
  17    6   30 1
  18    6   31 1
  19    7    8 1
  20    7   32 1
  21    7   33 1
  22    8    9 1
  23    8   34 1
  24    8   35 1
  25    9   10 1
  26    9   11 1
  27    9   36 1
  28   10   14 1
  29   10   37 1
  30   11   12 1
  31   11   15 1
  32   11   38 1
  33   12   13 1
  34   12   21 1
  35   12   17 1
  36   13   14 1
  37   13   39 1
  38   13   40 1
  39   14   41 1
  40   14   42 1
  41   15   16 1
  42   15   43 1
  43   15   44 1
  44   16   17 1
  45   16   45 1
  46   16   46 1
  47   17   22 1
  48   17   47 1
  49   18   48 1
  50   20   49 1
  51   20   50 1
  52   20   51 1
  53   21   52 1
  54   21   53 1
  55   21   54 1
  56   22   23 2
  57   22   24 1
  58   24   55 1
  59   24   56 1
  60   24   57 1

#	End of record

