#	Name: ASD08150773
#	Creating user name:	WinNT
#	Creation time:	15. 06. 2019 21:16

#	Modifying user name:	WinNT
#	Modification time:	15. 06. 2019 21:16

#	Program:	/corina/corina34_cracker 3.40 0067  02.08.2006

@<TRIPOS>MOLECULE
ASD08150773
  60   63    0    0    0
SMALL
NO_CHARGES


@<TRIPOS>ATOM
   1 C1            -0.4192     0.4138     0.1892 C.1     
   2 C2            -0.3392     1.8432     0.2224 C.ar    
   3 C3             0.9023     2.4752     0.1668 C.ar    
   4 C4             0.9709     3.8653     0.1996 C.ar    
   5 C5            -0.2019     4.6175     0.2878 C.ar    
   6 C6            -1.4287     3.9862     0.3430 C.ar    
   7 C7            -1.5053     2.6081     0.3046 C.ar    
   8 N8            -0.4826    -0.7201     0.1629 N.1     
   9 C9             4.6863     5.8051     0.0036 C.2     
  10 N10            3.7999     5.9484    -0.9812 N.2     
  11 C11            2.6229     5.3498    -0.9452 C.2     
  12 C12            2.2857     4.5449     0.1416 C.2     
  13 C13            3.2223     4.3911     1.1855 C.2     
  14 N14            4.4097     5.0278     1.0940 N.am    
  15 C15            5.9281     6.4596    -0.0855 C.2     
  16 C16            6.8367     6.3148     0.9203 C.2     
  17 C17            6.5209     5.5159     2.0280 C.2     
  18 C18            5.3250     4.8885     2.0934 C.2     
  19 O19            2.9639     3.6955     2.1539 O.2     
  20 C20            5.0002     4.0268     3.2863 C.3     
  21 C21            1.6465     5.5362    -2.0778 C.3     
  22 C22            1.2058     7.0003    -2.1356 C.3     
  23 N23            2.2894     5.1695    -3.3421 N.pl3   
  24 N24            3.3982     4.3510    -6.0872 N.2     
  25 C25            3.4044     3.9448    -7.3230 C.2     
  26 N26            2.1275     3.7099    -7.7425 N.pl3   
  27 C27            1.2912     3.9920    -6.6921 C.ar    
  28 N28           -0.0242     3.9533    -6.5053 N.ar    
  29 C29           -0.5491     4.2964    -5.3401 C.ar    
  30 N30            0.1969     4.6891    -4.3155 N.ar    
  31 C31            1.5198     4.7575    -4.4156 C.ar    
  32 C32            2.1208     4.4026    -5.6355 C.ar    
  33 N33           -1.9244     4.2433    -5.1844 N.pl3   
  34 H34            1.8068     1.8890     0.0990 H       
  35 H35           -0.1494     5.6959     0.3134 H       
  36 H36           -2.3327     4.5731     0.4115 H       
  37 H37           -2.4682     2.1204     0.3428 H       
  38 H38            6.1602     7.0718    -0.9444 H       
  39 H39            7.7939     6.8118     0.8638 H       
  40 H40            7.2365     5.3968     2.8282 H       
  41 H41            4.8080     3.0061     2.9556 H       
  42 H42            5.8422     4.0319     3.9784 H       
  43 H43            4.1154     4.4189     3.7877 H       
  44 H44            0.7758     4.9009    -1.9153 H       
  45 H45            0.4996     7.1351    -2.9548 H       
  46 H46            0.7275     7.2731    -1.1949 H       
  47 H47            2.0765     7.6356    -2.2981 H       
  48 H48            3.2546     5.2156    -3.4266 H       
  49 H49            4.2895     3.8131    -7.9277 H       
  50 H50            1.8600     3.4005    -8.6220 H       
  51 H51           -2.4854     3.9582    -5.9226 H       
  52 H52           -2.3266     4.4912    -4.3373 H       
  53 C53           13.9653    14.6238    10.1252 C.2     
  54 C54           13.9858    13.1170    10.1169 C.3     
  55 O55           15.0034    15.2422    10.1186 O.2     
  56 O56           12.7939    15.2791    10.1343 O.3     
  57 F57           15.3109    12.6687    10.1018 F       
  58 F58           13.3436    12.6356    11.2628 F       
  59 F59           13.3218    12.6479     8.9784 F       
  60 H60           12.8314    16.2454    10.1394 H       
@<TRIPOS>BOND
   1    1    2 1
   2    1    8 3
   3    2    3 ar
   4    2    7 ar
   5    3    4 ar
   6    3   34 1
   7    4    5 ar
   8    4   12 1
   9    5    6 ar
  10    5   35 1
  11    6    7 ar
  12    6   36 1
  13    7   37 1
  14    9   10 2
  15    9   14 1
  16    9   15 1
  17   10   11 1
  18   11   12 2
  19   11   21 1
  20   12   13 1
  21   13   14 am
  22   13   19 2
  23   14   18 1
  24   15   16 2
  25   15   38 1
  26   16   17 1
  27   16   39 1
  28   17   18 2
  29   17   40 1
  30   18   20 1
  31   20   41 1
  32   20   42 1
  33   20   43 1
  34   21   22 1
  35   21   23 1
  36   21   44 1
  37   22   45 1
  38   22   46 1
  39   22   47 1
  40   23   31 1
  41   23   48 1
  42   24   25 2
  43   24   32 1
  44   25   26 1
  45   25   49 1
  46   26   27 1
  47   26   50 1
  48   27   28 ar
  49   27   32 ar
  50   28   29 ar
  51   29   30 ar
  52   29   33 1
  53   30   31 ar
  54   31   32 ar
  55   33   51 1
  56   33   52 1
  57   53   54 1
  58   53   55 2
  59   53   56 1
  60   54   57 1
  61   54   58 1
  62   54   59 1
  63   56   60 1

#	End of record

