#	Name: ASD01910926
#	Creating user name:	WinNT
#	Creation time:	15. 06. 2019 19:56

#	Modifying user name:	WinNT
#	Modification time:	15. 06. 2019 19:56

#	Program:	/corina/corina34_cracker 3.40 0067  02.08.2006

@<TRIPOS>MOLECULE
ASD01910926
  48   51    0    0    0
SMALL
NO_CHARGES


@<TRIPOS>ATOM
   1 N1            -0.1168     1.3255    -0.4010 N.am    
   2 C2            -0.0748    -0.1332    -0.2268 C.3     
   3 C3            -0.8132    -0.4935     1.0682 C.3     
   4 N4            -2.1182     0.1824     1.0684 N.am    
   5 C5            -2.1602     1.6411     0.8941 C.3     
   6 C6            -1.4214     2.0022    -0.3953 C.3     
   7 C7            -3.2560    -0.5228     1.2250 C.2     
   8 C8            -4.5502     0.1809     1.3533 C.ar    
   9 C9            -5.6766    -0.2979     0.6806 C.ar    
  10 C10           -6.8866     0.3575     0.7987 C.ar    
  11 C11           -6.9925     1.4893     1.5814 C.ar    
  12 C12           -5.8729     1.9804     2.2604 C.ar    
  13 C13           -4.6497     1.3193     2.1500 C.ar    
  14 C14           -5.9835     3.1551     3.0719 C.1     
  15 O15           -3.2183    -1.7372     1.2609 O.2     
  16 C16           -6.0742     4.1181     3.7372 C.1     
  17 C17           -6.1848     5.2928     4.5486 C.ar    
  18 C18           -5.0729     5.7922     5.2314 C.ar    
  19 N19           -5.1755     6.8724     5.9774 N.ar    
  20 C20           -6.3162     7.5214     6.1111 C.ar    
  21 C21           -7.4634     7.0911     5.4682 C.ar    
  22 C22           -7.4090     5.9648     4.6671 C.ar    
  23 C23            1.0210     2.0307    -0.5577 C.2     
  24 O24            2.0921     1.4619    -0.5557 O.2     
  25 C25            0.9622     3.5261    -0.7353 C.3     
  26 C26            2.2882     4.2695    -0.9083 C.3     
  27 C27            1.3498     4.0907    -2.1035 C.3     
  28 H28           -0.5628    -0.6169    -1.0729 H       
  29 H29            0.9617    -0.4640    -0.1611 H       
  30 H30           -0.9601    -1.5725     1.1174 H       
  31 H31           -0.2293    -0.1618     1.9267 H       
  32 H32           -3.1967     1.9719     0.8284 H       
  33 H33           -1.6722     2.1248     1.7403 H       
  34 H34           -1.2752     3.0813    -0.4432 H       
  35 H35           -2.0033     1.6708    -1.2553 H       
  36 H36           -5.6012    -1.1828     0.0660 H       
  37 H37           -7.7541    -0.0173     0.2757 H       
  38 H38           -7.9417     1.9969     1.6694 H       
  39 H39           -3.7816     1.6938     2.6720 H       
  40 H40           -4.1216     5.2879     5.1469 H       
  41 H41           -6.3554     8.4034     6.7332 H       
  42 H42           -8.3908     7.6317     5.5871 H       
  43 H43           -8.2893     5.6070     4.1538 H       
  44 H44            0.1684     4.0337    -0.1875 H       
  45 H45            2.3665     5.2665    -0.4747 H       
  46 H46            3.2030     3.6771    -0.8937 H       
  47 H47            1.6472     3.3806    -2.8751 H       
  48 H48            0.8107     4.9700    -2.4561 H       
@<TRIPOS>BOND
   1    1    2 1
   2    1   23 am
   3    1    6 1
   4    2    3 1
   5    2   28 1
   6    2   29 1
   7    3    4 1
   8    3   30 1
   9    3   31 1
  10    4    5 1
  11    4    7 am
  12    5    6 1
  13    5   32 1
  14    5   33 1
  15    6   34 1
  16    6   35 1
  17    7    8 1
  18    7   15 2
  19    8    9 ar
  20    8   13 ar
  21    9   10 ar
  22    9   36 1
  23   10   11 ar
  24   10   37 1
  25   11   12 ar
  26   11   38 1
  27   12   13 ar
  28   12   14 1
  29   13   39 1
  30   14   16 3
  31   16   17 1
  32   17   18 ar
  33   17   22 ar
  34   18   19 ar
  35   18   40 1
  36   19   20 ar
  37   20   21 ar
  38   20   41 1
  39   21   22 ar
  40   21   42 1
  41   22   43 1
  42   23   24 2
  43   23   25 1
  44   25   26 1
  45   25   27 1
  46   25   44 1
  47   26   27 1
  48   26   45 1
  49   26   46 1
  50   27   47 1
  51   27   48 1

#	End of record

