#	Name: ASD01812880
#	Creating user name:	WinNT
#	Creation time:	15. 06. 2019 19:29

#	Modifying user name:	WinNT
#	Modification time:	15. 06. 2019 19:29

#	Program:	/corina/corina34_cracker 3.40 0067  02.08.2006

@<TRIPOS>MOLECULE
ASD01812880
  53   57    0    0    0
SMALL
NO_CHARGES


@<TRIPOS>ATOM
   1 N1            -0.0158     1.3147     0.0093 N.ar    
   2 C2             0.0021    -0.0041     0.0020 C.ar    
   3 C3             1.1989    -0.7033    -0.0127 C.ar    
   4 C4             2.3829    -0.0013    -0.0202 C.ar    
   5 C5             2.3448     1.3978    -0.0128 C.ar    
   6 C6             1.0955     2.0332     0.0025 C.ar    
   7 C7             3.8373    -0.3889    -0.0363 C.3     
   8 N8             4.5955     0.8684    -0.0373 N.am    
   9 C9             3.7280     1.8961    -0.0237 C.2     
  10 C10            6.0558     0.9844    -0.0504 C.3     
  11 C11            6.5432     1.0311    -1.4757 C.ar    
  12 O12            1.0255     3.3856     0.0100 O.3     
  13 O13            4.0429     3.0706    -0.0212 O.2     
  14 C14            6.6712     2.2479    -2.1207 C.ar    
  15 C15            7.1172     2.2963    -3.4260 C.ar    
  16 C16            7.4386     1.1168    -4.0938 C.ar    
  17 C17            7.3079    -0.1060    -3.4395 C.ar    
  18 C18            6.8664    -0.1426    -2.1322 C.ar    
  19 C19            8.2662     0.0905    -6.2668 C.2     
  20 C20            7.9184     1.1627    -5.4981 C.2     
  21 C21            8.0972     2.3211    -6.2791 C.2     
  22 N22            8.5307     1.9543    -7.4560 N.2     
  23 N23            8.6449     0.5590    -7.4730 N.pl3   
  24 C24            9.0982    -0.2520    -8.6057 C.3     
  25 C25           -0.2795     3.9677     0.0251 C.3     
  26 C26           -0.3384     5.3295     0.7371 C.3     
  27 C27           -0.6345     4.7177    -1.2696 C.3     
  28 C28           -1.2948     5.7829    -0.3785 C.3     
  29 C29            8.2434     0.0651    -9.8344 C.3     
  30 H30           -0.9309    -0.5480     0.0080 H       
  31 H31            1.2023    -1.7833    -0.0178 H       
  32 H32            4.0797    -0.9721     0.8522 H       
  33 H33            4.0624    -0.9631    -0.9351 H       
  34 H34            6.3524     1.8979     0.4651 H       
  35 H35            6.4932     0.1235     0.4552 H       
  36 H36            6.4214     3.1618    -1.6022 H       
  37 H37            7.2164     3.2469    -3.9289 H       
  38 H38            7.5554    -1.0234    -3.9528 H       
  39 H39            6.7692    -1.0898    -1.6224 H       
  40 H40            8.2461    -0.9456    -5.9626 H       
  41 H41            7.9083     3.3358    -5.9609 H       
  42 H42           10.1422    -0.0243    -8.8208 H       
  43 H43            9.0004    -1.3089    -8.3580 H       
  44 H44           -1.0503     3.2701     0.3526 H       
  45 H45           -0.8044     5.2877     1.7216 H       
  46 H46            0.6126     5.8621     0.7402 H       
  47 H47            0.2355     5.0830    -1.8152 H       
  48 H48           -1.3396     4.1820    -1.9052 H       
  49 H49           -2.3441     5.5821    -0.1624 H       
  50 H50           -1.1191     6.8044    -0.7158 H       
  51 H51            7.1994    -0.1626    -9.6192 H       
  52 H52            8.3412     1.1221   -10.0821 H       
  53 H53            8.5807    -0.5382   -10.6772 H       
@<TRIPOS>BOND
   1    1    2 ar
   2    1    6 ar
   3    2    3 ar
   4    2   30 1
   5    3    4 ar
   6    3   31 1
   7    4    7 1
   8    4    5 ar
   9    5    6 ar
  10    5    9 1
  11    6   12 1
  12    7    8 1
  13    7   32 1
  14    7   33 1
  15    8    9 am
  16    8   10 1
  17    9   13 2
  18   10   11 1
  19   10   34 1
  20   10   35 1
  21   11   14 ar
  22   11   18 ar
  23   12   25 1
  24   14   15 ar
  25   14   36 1
  26   15   16 ar
  27   15   37 1
  28   16   17 ar
  29   16   20 1
  30   17   18 ar
  31   17   38 1
  32   18   39 1
  33   19   20 2
  34   19   23 1
  35   19   40 1
  36   20   21 1
  37   21   22 2
  38   21   41 1
  39   22   23 1
  40   23   24 1
  41   24   29 1
  42   24   42 1
  43   24   43 1
  44   25   26 1
  45   25   27 1
  46   25   44 1
  47   26   28 1
  48   26   45 1
  49   26   46 1
  50   27   28 1
  51   27   47 1
  52   27   48 1
  53   28   49 1
  54   28   50 1
  55   29   51 1
  56   29   52 1
  57   29   53 1

#	End of record

