#	Name: ASD03140006
#	Creating user name:	WinNT
#	Creation time:	15. 06. 2019 20:33

#	Modifying user name:	WinNT
#	Modification time:	15. 06. 2019 20:33

#	Program:	/corina/corina34_cracker 3.40 0067  02.08.2006

@<TRIPOS>MOLECULE
ASD03140006
  47   50    0    0    0
SMALL
NO_CHARGES


@<TRIPOS>ATOM
   1 C1            -0.0092     1.3201    -0.2015 C.ar    
   2 N2             0.0016    -0.0031     0.0114 N.ar    
   3 C3             1.1298    -0.6476     0.1996 C.ar    
   4 N4             2.3001    -0.0354     0.1897 N.ar    
   5 C5             2.3892     1.2708    -0.0131 C.ar    
   6 C6             1.1985     2.0143    -0.2223 C.ar    
   7 C7            -0.2499     3.8097    -0.6182 C.2     
   8 S8            -1.3355     2.4372    -0.4727 S.3     
   9 C9             0.4393     6.1901    -0.5309 C.3     
  10 C10           -0.7035     5.2353    -0.8804 C.3     
  11 C11            1.0230     3.4413    -0.4649 C.2     
  12 C12            2.1916     4.4159    -0.5339 C.3     
  13 C13            1.7219     5.7038    -1.2124 C.3     
  14 N14            3.6215     1.8992    -0.0203 N.pl3   
  15 C15            4.8491     1.1054     0.0756 C.3     
  16 C16            6.0624     2.0370     0.0458 C.3     
  17 C17            7.3444     1.2081     0.1460 C.3     
  18 N18            8.5094     2.1025     0.1173 N.3     
  19 C19            8.5533     2.9491     1.3185 C.3     
  20 C20            9.7569     1.3384    -0.0273 C.3     
  21 C21           10.9371     2.3098    -0.1127 C.3     
  22 O22           10.9454     3.1452     1.0481 O.3     
  23 C23            9.7456     3.9044     1.2196 C.3     
  24 H24            1.0999    -1.7139     0.3685 H       
  25 H25            0.1964     7.1935    -0.8806 H       
  26 H26            0.5859     6.2038     0.5491 H       
  27 H27           -0.9626     5.3457    -1.9334 H       
  28 H28           -1.5721     5.4636    -0.2627 H       
  29 H29            2.5398     4.6404     0.4743 H       
  30 H30            3.0026     3.9732    -1.1122 H       
  31 H31            1.5233     5.5089    -2.2663 H       
  32 H32            2.4950     6.4667    -1.1210 H       
  33 H33            3.6728     2.8654    -0.0889 H       
  34 H34            4.8459     0.5428     1.0092 H       
  35 H35            4.9012     0.4139    -0.7653 H       
  36 H36            6.0655     2.5997    -0.8878 H       
  37 H37            6.0102     2.7286     0.8867 H       
  38 H38            7.3413     0.6454     1.0795 H       
  39 H39            7.3966     0.5165    -0.6949 H       
  40 H40            7.6307     3.5248     1.3919 H       
  41 H41            8.6625     2.3210     2.2026 H       
  42 H42            9.8854     0.6845     0.8353 H       
  43 H43            9.7129     0.7384    -0.9363 H       
  44 H44           11.8691     1.7468    -0.1626 H       
  45 H45           10.8362     2.9276    -1.0050 H       
  46 H46            9.6100     4.5685     0.3661 H       
  47 H47            9.8158     4.4946     2.1333 H       
@<TRIPOS>BOND
   1    1    2 ar
   2    1    6 ar
   3    1    8 1
   4    2    3 ar
   5    3    4 ar
   6    3   24 1
   7    4    5 ar
   8    5    6 ar
   9    5   14 1
  10    6   11 1
  11    7    8 1
  12    7   11 2
  13    7   10 1
  14    9   10 1
  15    9   13 1
  16    9   25 1
  17    9   26 1
  18   10   27 1
  19   10   28 1
  20   11   12 1
  21   12   13 1
  22   12   29 1
  23   12   30 1
  24   13   31 1
  25   13   32 1
  26   14   15 1
  27   14   33 1
  28   15   16 1
  29   15   34 1
  30   15   35 1
  31   16   17 1
  32   16   36 1
  33   16   37 1
  34   17   18 1
  35   17   38 1
  36   17   39 1
  37   18   20 1
  38   18   19 1
  39   19   23 1
  40   19   40 1
  41   19   41 1
  42   20   21 1
  43   20   42 1
  44   20   43 1
  45   21   22 1
  46   21   44 1
  47   21   45 1
  48   22   23 1
  49   23   46 1
  50   23   47 1

#	End of record

