#	Name: ASD01914426
#	Creating user name:	WinNT
#	Creation time:	15. 06. 2019 20:03

#	Modifying user name:	WinNT
#	Modification time:	15. 06. 2019 20:03

#	Program:	/corina/corina34_cracker 3.40 0067  02.08.2006

@<TRIPOS>MOLECULE
ASD01914426
  59   63    0    0    0
SMALL
NO_CHARGES


@<TRIPOS>ATOM
   1 C1            -0.0167     1.3769     0.0096 C.ar    
   2 C2             0.0021    -0.0041     0.0020 C.ar    
   3 C3             1.2140    -0.6809    -0.0132 C.ar    
   4 C4             2.4051     0.0320    -0.0207 C.ar    
   5 C5             2.3825     1.4129    -0.0131 C.ar    
   6 C6             1.1726     2.0864     0.0021 C.ar    
   7 N7             1.2350    -2.0835    -0.0204 N.pl3   
   8 C8             0.5465    -2.9098     0.8262 C.2     
   9 C9             0.8556    -4.1829     0.4666 C.2     
  10 N10            1.7115    -4.1228    -0.5738 N.2     
  11 C11            1.9380    -2.8743    -0.8732 C.2     
  12 C12            0.3433    -5.4199     1.1057 C.ar    
  13 C13           -0.6195    -5.3403     2.1102 C.ar    
  14 C14           -1.0947    -6.4928     2.7035 C.ar    
  15 C15           -0.6183    -7.7272     2.3041 C.ar    
  16 C16            0.3409    -7.8152     1.3041 C.ar    
  17 C17            0.8189    -6.6646     0.6996 C.ar    
  18 C18            2.8396    -2.3875    -1.9782 C.3     
  19 O19            0.8600    -2.5095    -3.2573 O.2     
  20 C20            2.0432    -2.2432    -3.2495 C.2     
  21 N21            2.6458    -1.8183    -4.3776 N.am    
  22 F22            1.1524     3.4372     0.0091 F       
  23 O23            0.8069    -9.0311     0.9148 O.3     
  24 C24            0.2657   -10.1758     1.5773 C.3     
  25 C25            1.8209    -1.7005    -5.5707 C.3     
  26 C26            1.6398    -0.2141    -5.9221 C.3     
  27 C27            2.9455     0.2680    -6.5340 C.2     
  28 C28            4.1039     0.3783    -5.8850 C.2     
  29 C29            4.2880    -0.0014    -4.4164 C.3     
  30 C30            4.0648    -1.5102    -4.2998 C.3     
  31 S31            3.1752     0.7697    -8.2038 S.3     
  32 C32            4.8190     1.1084    -7.8769 C.2     
  33 N33            5.0879     0.8458    -6.6453 N.2     
  34 C34            5.8087     1.6367    -8.8833 C.3     
  35 H35           -0.9594     1.9038     0.0169 H       
  36 H36           -0.9256    -0.5571     0.0082 H       
  37 H37            3.3489    -0.4929    -0.0321 H       
  38 H38            3.3090     1.9679    -0.0185 H       
  39 H39           -0.1144    -2.6081     1.6254 H       
  40 H40           -0.9936    -4.3772     2.4248 H       
  41 H41           -1.8406    -6.4296     3.4820 H       
  42 H42           -0.9929    -8.6259     2.7714 H       
  43 H43            1.5650    -6.7315    -0.0784 H       
  44 H44            3.2626    -1.4214    -1.7029 H       
  45 H45            3.6446    -3.1058    -2.1333 H       
  46 H46            0.4747   -10.1102     2.6451 H       
  47 H47           -0.8122   -10.2111     1.4196 H       
  48 H48            0.7219   -11.0792     1.1726 H       
  49 H49            2.3066    -2.2137    -6.4006 H       
  50 H50            0.8461    -2.1514    -5.3846 H       
  51 H51            0.8286    -0.0991    -6.6410 H       
  52 H52            1.4203     0.3563    -5.0195 H       
  53 H53            5.2979     0.2505    -4.0926 H       
  54 H54            3.5587     0.5276    -3.8029 H       
  55 H55            4.4587    -1.8613    -3.3460 H       
  56 H56            4.5854    -2.0167    -5.1125 H       
  57 H57            5.7973     2.7265    -8.8664 H       
  58 H58            6.8076     1.2798    -8.6324 H       
  59 H59            5.5369     1.2858    -9.8788 H       
@<TRIPOS>BOND
   1    1    2 ar
   2    1    6 ar
   3    1   35 1
   4    2    3 ar
   5    2   36 1
   6    3    4 ar
   7    3    7 1
   8    4    5 ar
   9    4   37 1
  10    5    6 ar
  11    5   38 1
  12    6   22 1
  13    7    8 1
  14    7   11 1
  15    8    9 2
  16    8   39 1
  17    9   10 1
  18    9   12 1
  19   10   11 2
  20   11   18 1
  21   12   13 ar
  22   12   17 ar
  23   13   14 ar
  24   13   40 1
  25   14   15 ar
  26   14   41 1
  27   15   16 ar
  28   15   42 1
  29   16   17 ar
  30   16   23 1
  31   17   43 1
  32   18   20 1
  33   18   44 1
  34   18   45 1
  35   19   20 2
  36   20   21 am
  37   21   25 1
  38   21   30 1
  39   23   24 1
  40   24   46 1
  41   24   47 1
  42   24   48 1
  43   25   26 1
  44   25   49 1
  45   25   50 1
  46   26   27 1
  47   26   51 1
  48   26   52 1
  49   27   28 2
  50   27   31 1
  51   28   29 1
  52   28   33 1
  53   29   30 1
  54   29   53 1
  55   29   54 1
  56   30   55 1
  57   30   56 1
  58   31   32 1
  59   32   33 2
  60   32   34 1
  61   34   57 1
  62   34   58 1
  63   34   59 1

#	End of record

