#	Name: ASD03430490
#	Creating user name:	WinNT
#	Creation time:	15. 06. 2019 20:41

#	Modifying user name:	WinNT
#	Modification time:	15. 06. 2019 20:41

#	Program:	/corina/corina34_cracker 3.40 0067  02.08.2006

@<TRIPOS>MOLECULE
ASD03430490
  31   34    0    0    0
SMALL
NO_CHARGES


@<TRIPOS>ATOM
   1 N1            -0.0161     1.3395     0.0094 N.am    
   2 C2             0.0021    -0.0041     0.0020 C.2     
   3 C3             1.4548    -0.4298    -0.0141 C.3     
   4 C4             2.2198     0.8737    -0.0144 C.ar    
   5 C5             3.5644     1.1702    -0.0261 C.ar    
   6 C6             3.9805     2.4901    -0.0234 C.ar    
   7 C7             3.0433     3.5069    -0.0090 C.ar    
   8 C8             1.6949     3.2128     0.0032 C.ar    
   9 C9             1.2684     1.8852     0.0001 C.ar    
  10 O10           -0.9637    -0.7378     0.0073 O.2     
  11 O11            2.6031    -3.2251     4.7294 O.3     
  12 C12            1.8603    -2.3749     5.6230 C.3     
  13 O13            1.8126    -1.1120     4.9332 O.3     
  14 C14            1.9017    -1.4186     3.6050 C.ar    
  15 C15            2.3878    -2.7181     3.4804 C.ar    
  16 C16            1.6007    -0.6821     2.4716 C.ar    
  17 C17            1.7830    -1.2343     1.2172 C.ar    
  18 C18            2.2669    -2.5275     1.0907 C.ar    
  19 C19            2.5694    -3.2692     2.2230 C.ar    
  20 O20            2.4445    -3.0689    -0.1439 O.3     
  21 Br21           0.4236     4.6126     0.0234 Br      
  22 H22           -0.8287     1.8692     0.0163 H       
  23 H23            1.6751    -1.0021    -0.9153 H       
  24 H24            4.2935     0.3736    -0.0369 H       
  25 H25            5.0345     2.7254    -0.0321 H       
  26 H26            3.3683     4.5369    -0.0069 H       
  27 H27            0.8544    -2.7659     5.7760 H       
  28 H28            2.3811    -2.2719     6.5750 H       
  29 H29            1.2239     0.3255     2.5676 H       
  30 H30            2.9465    -4.2764     2.1240 H       
  31 H31            3.3225    -2.9145    -0.5185 H       
@<TRIPOS>BOND
   1    1    2 am
   2    1    9 1
   3    1   22 1
   4    2    3 1
   5    2   10 2
   6    3    4 1
   7    3   17 1
   8    3   23 1
   9    4    5 ar
  10    4    9 ar
  11    5    6 ar
  12    5   24 1
  13    6    7 ar
  14    6   25 1
  15    7    8 ar
  16    7   26 1
  17    8    9 ar
  18    8   21 1
  19   11   12 1
  20   11   15 1
  21   12   13 1
  22   12   27 1
  23   12   28 1
  24   13   14 1
  25   14   15 ar
  26   14   16 ar
  27   15   19 ar
  28   16   17 ar
  29   16   29 1
  30   17   18 ar
  31   18   19 ar
  32   18   20 1
  33   19   30 1
  34   20   31 1

#	End of record

