#	Name: ASD01880259
#	Creating user name:	WinNT
#	Creation time:	15. 06. 2019 19:40

#	Modifying user name:	WinNT
#	Modification time:	15. 06. 2019 19:40

#	Program:	/corina/corina34_cracker 3.40 0067  02.08.2006

@<TRIPOS>MOLECULE
ASD01880259
  47   50    0    0    0
SMALL
NO_CHARGES


@<TRIPOS>ATOM
   1 C1            -0.0169     1.3984     0.0097 C.2     
   2 C2             0.0021    -0.0041     0.0020 C.2     
   3 C3            -1.2223    -0.7047     0.0099 C.2     
   4 C4            -2.3969    -0.0475     0.0242 C.2     
   5 N5            -2.4615     1.3156     0.0321 N.pl3   
   6 C6            -1.3172     2.0717     0.0319 C.2     
   7 C7            -3.5157     2.1918     0.0456 C.2     
   8 C8            -2.9979     3.4382     0.0472 C.2     
   9 N9            -1.6639     3.3462     0.0397 N.2     
  10 C10           -4.9788     1.8308     0.0563 C.3     
  11 C11            1.2014     2.1509     0.0021 C.1     
  12 N12            2.1678     2.7479    -0.0039 N.1     
  13 C13            1.2855    -0.7368    -0.0146 C.ar    
  14 C14            1.6508    -1.5333     1.0733 C.ar    
  15 C15            2.8474    -2.2148     1.0549 C.ar    
  16 C16            3.6921    -2.1106    -0.0458 C.ar    
  17 C17            3.3311    -1.3180    -1.1308 C.ar    
  18 C18            2.1332    -0.6387    -1.1207 C.ar    
  19 N19            4.9024    -2.8010    -0.0612 N.3     
  20 C20            5.6343    -2.5521    -1.3097 C.3     
  21 C21            7.0162    -3.2051    -1.2313 C.3     
  22 C22            6.8518    -4.7106    -1.0056 C.3     
  23 C23            6.0448    -4.9416     0.2749 C.3     
  24 C24            4.6911    -4.2383     0.1529 C.3     
  25 C25           -5.5164     1.8382    -1.3761 C.3     
  26 F26           -4.8115     0.9048    -2.1435 F       
  27 F27           -6.8747     1.5031    -1.3661 F       
  28 F28           -5.3547     3.1133    -1.9284 F       
  29 H29           -1.2171    -1.7847     0.0041 H       
  30 H30           -3.3154    -0.6157     0.0291 H       
  31 H31           -3.5662     4.3566     0.0566 H       
  32 H32           -5.1048     0.8373     0.4866 H       
  33 H33           -5.5281     2.5581     0.6543 H       
  34 H34            0.9957    -1.6144     1.9281 H       
  35 H35            3.1306    -2.8305     1.8958 H       
  36 H36            3.9889    -1.2390    -1.9837 H       
  37 H37            1.8533    -0.0239    -1.9634 H       
  38 H38            5.0794    -2.9758    -2.1467 H       
  39 H39            5.7480    -1.4779    -1.4561 H       
  40 H40            7.5532    -3.0334    -2.1642 H       
  41 H41            7.5769    -2.7720    -0.4030 H       
  42 H42            6.3251    -5.1505    -1.8525 H       
  43 H43            7.8337    -5.1733    -0.9059 H       
  44 H44            5.8878    -6.0107     0.4183 H       
  45 H45            6.5902    -4.5359     1.1270 H       
  46 H46            4.1197    -4.3889     1.0688 H       
  47 H47            4.1406    -4.6541    -0.6909 H       
@<TRIPOS>BOND
   1    1    2 2
   2    1   11 1
   3    1    6 1
   4    2    3 1
   5    2   13 1
   6    3    4 2
   7    3   29 1
   8    4    5 1
   9    4   30 1
  10    5    6 1
  11    5    7 1
  12    6    9 2
  13    7    8 2
  14    7   10 1
  15    8    9 1
  16    8   31 1
  17   10   25 1
  18   10   32 1
  19   10   33 1
  20   11   12 3
  21   13   14 ar
  22   13   18 ar
  23   14   15 ar
  24   14   34 1
  25   15   16 ar
  26   15   35 1
  27   16   17 ar
  28   16   19 1
  29   17   18 ar
  30   17   36 1
  31   18   37 1
  32   19   20 1
  33   19   24 1
  34   20   21 1
  35   20   38 1
  36   20   39 1
  37   21   22 1
  38   21   40 1
  39   21   41 1
  40   22   23 1
  41   22   42 1
  42   22   43 1
  43   23   24 1
  44   23   44 1
  45   23   45 1
  46   24   46 1
  47   24   47 1
  48   25   26 1
  49   25   27 1
  50   25   28 1

#	End of record

