#	Name: ASD01813799
#	Creating user name:	WinNT
#	Creation time:	15. 06. 2019 19:31

#	Modifying user name:	WinNT
#	Modification time:	15. 06. 2019 19:31

#	Program:	/corina/corina34_cracker 3.40 0067  02.08.2006

@<TRIPOS>MOLECULE
ASD01813799
  66   70    0    0    0
SMALL
NO_CHARGES


@<TRIPOS>ATOM
   1 C1            -0.0169     1.3972     0.0097 C.2     
   2 C2             0.0021    -0.0041     0.0020 C.2     
   3 C3             1.1986    -0.6593    -0.0129 C.2     
   4 C4             2.3918     0.0821    -0.0204 C.2     
   5 N5             2.3437     1.4497    -0.0122 N.am    
   6 C6             1.1421     2.0937     0.0024 C.2     
   7 C7             3.6227    -0.5889    -0.0356 C.2     
   8 C8             4.7877     0.1218    -0.0425 C.2     
   9 C9             4.7345     1.5280    -0.0346 C.2     
  10 C10            3.4812     2.1736    -0.0189 C.2     
  11 O11            3.4258     3.3917    -0.0123 O.2     
  12 C12            5.9703     2.3140    -0.0413 C.2     
  13 O13            5.9124     3.6618    -0.0337 O.3     
  14 O14            7.0487     1.7516    -0.0537 O.2     
  15 C15            3.6593    -2.0954    -0.0439 C.3     
  16 N16            3.7787    -2.5747    -1.4274 N.3     
  17 C17            4.0549    -4.0171    -1.4628 C.3     
  18 C18            4.3510    -4.4418    -2.9051 C.3     
  19 N19            3.2384    -4.0004    -3.7599 N.am    
  20 C20            2.8130    -2.5949    -3.6777 C.3     
  21 C21            2.5774    -2.2429    -2.2050 C.3     
  22 C22            2.6253    -4.8609    -4.5966 C.2     
  23 C23            5.2477    -4.3222    -0.5938 C.ar    
  24 O24            1.6086    -4.4378    -5.3712 O.3     
  25 O25            2.9901    -6.0186    -4.6519 O.2     
  26 C26            0.9953    -5.4192    -6.2481 C.3     
  27 C27            0.4246    -6.5654    -5.4106 C.3     
  28 C28           -0.1322    -4.7583    -7.0436 C.3     
  29 C29            2.0473    -5.9680    -7.2141 C.3     
  30 C30            6.3340    -3.4678    -0.5891 C.ar    
  31 C31            7.4310    -3.7437     0.2063 C.ar    
  32 C32            7.4434    -4.8782     1.0007 C.ar    
  33 C33            6.3482    -5.7392     0.9962 C.ar    
  34 C34            5.2506    -5.4535     0.2013 C.ar    
  35 O35            8.3828    -5.3719     1.8592 O.3     
  36 C36            7.6859    -6.3225     2.6862 C.3     
  37 O37            6.6019    -6.7720     1.8519 O.3     
  38 H38           -0.9605     1.9226     0.0170 H       
  39 H39           -0.9233    -0.5609     0.0082 H       
  40 H40            1.2282    -1.7389    -0.0187 H       
  41 H41            1.1156     3.1733     0.0087 H       
  42 H42            5.7393    -0.3889    -0.0536 H       
  43 H43            6.7544     4.1373    -0.0385 H       
  44 H44            4.5153    -2.4412     0.5356 H       
  45 H45            2.7412    -2.4836     0.3971 H       
  46 H46            3.1865    -4.5628    -1.0940 H       
  47 H47            5.2777    -3.9764    -3.2410 H       
  48 H48            4.4434    -5.5267    -2.9557 H       
  49 H49            3.5918    -1.9520    -4.0878 H       
  50 H50            1.8886    -2.4587    -4.2391 H       
  51 H51            1.7296    -2.8133    -1.8258 H       
  52 H52            2.3687    -1.1768    -2.1148 H       
  53 H53           -0.3248    -6.1745    -4.7224 H       
  54 H54           -0.0358    -7.3022    -6.0689 H       
  55 H55            1.2279    -7.0362    -4.8439 H       
  56 H56            0.2744    -3.9417    -7.6403 H       
  57 H57           -0.5926    -5.4951    -7.7019 H       
  58 H58           -0.8816    -4.3674    -6.3554 H       
  59 H59            2.8505    -6.4388    -6.6473 H       
  60 H60            1.5869    -6.7047    -7.8724 H       
  61 H61            2.4538    -5.1514    -7.8107 H       
  62 H62            6.3262    -2.5828    -1.2081 H       
  63 H63            8.2786    -3.0744     0.2078 H       
  64 H64            4.4000    -6.1191     0.1962 H       
  65 H65            8.3395    -7.1551     2.9466 H       
  66 H66            7.3026    -5.8397     3.5851 H       
@<TRIPOS>BOND
   1    1    2 1
   2    1    6 2
   3    1   38 1
   4    2    3 2
   5    2   39 1
   6    3    4 1
   7    3   40 1
   8    4    5 1
   9    4    7 2
  10    5    6 1
  11    5   10 am
  12    6   41 1
  13    7    8 1
  14    7   15 1
  15    8    9 2
  16    8   42 1
  17    9   10 1
  18    9   12 1
  19   10   11 2
  20   12   13 1
  21   12   14 2
  22   13   43 1
  23   15   16 1
  24   15   44 1
  25   15   45 1
  26   16   17 1
  27   16   21 1
  28   17   18 1
  29   17   23 1
  30   17   46 1
  31   18   19 1
  32   18   47 1
  33   18   48 1
  34   19   20 1
  35   19   22 am
  36   20   21 1
  37   20   49 1
  38   20   50 1
  39   21   51 1
  40   21   52 1
  41   22   24 1
  42   22   25 2
  43   23   30 ar
  44   23   34 ar
  45   24   26 1
  46   26   27 1
  47   26   28 1
  48   26   29 1
  49   27   53 1
  50   27   54 1
  51   27   55 1
  52   28   56 1
  53   28   57 1
  54   28   58 1
  55   29   59 1
  56   29   60 1
  57   29   61 1
  58   30   31 ar
  59   30   62 1
  60   31   32 ar
  61   31   63 1
  62   32   33 ar
  63   32   35 1
  64   33   34 ar
  65   33   37 1
  66   34   64 1
  67   35   36 1
  68   36   37 1
  69   36   65 1
  70   36   66 1

#	End of record

