#	Name: ASD01916234
#	Creating user name:	WinNT
#	Creation time:	15. 06. 2019 20:06

#	Modifying user name:	WinNT
#	Modification time:	15. 06. 2019 20:06

#	Program:	/corina/corina34_cracker 3.40 0067  02.08.2006

@<TRIPOS>MOLECULE
ASD01916234
  35   37    0    0    0
SMALL
NO_CHARGES


@<TRIPOS>ATOM
   1 C1            -0.2823     1.4675    -0.4588 C.ar    
   2 C2            -0.3505     0.0747    -0.5316 C.ar    
   3 C3             0.7830    -0.6915    -0.2642 C.ar    
   4 C4             1.9796    -0.0635     0.0746 C.ar    
   5 C5             2.0392     1.3298     0.1451 C.ar    
   6 C6             0.9103     2.0880    -0.1214 C.ar    
   7 O7             0.9726     3.4438    -0.0517 O.3     
   8 C8             0.4688     4.0496     1.0557 C.ar    
   9 C9             0.5064     5.4336     1.1914 C.ar    
  10 N10            0.0057     5.9853     2.2845 N.ar    
  11 C11           -0.5230     5.2422     3.2359 C.ar    
  12 N12           -0.5771     3.9286     3.1444 N.ar    
  13 C13           -0.1029     3.3020     2.0802 C.ar    
  14 C14            3.1846    -0.8713     0.3596 C.2     
  15 N15            3.1259    -2.2160     0.2917 N.am    
  16 O16            4.2282    -0.3225     0.6551 O.2     
  17 C17            4.2849    -2.9735     0.4559 C.ar    
  18 C18            4.2393    -4.3502     0.2696 C.ar    
  19 C19            5.3964    -5.0911     0.4350 C.ar    
  20 C20            6.5655    -4.4252     0.7830 C.ar    
  21 C21            6.5371    -3.0526     0.9521 C.ar    
  22 N22            5.4188    -2.3738     0.7823 N.ar    
  23 F23            7.7169    -5.1108     0.9546 F       
  24 C24           -1.5831    -0.5656    -0.8798 C.1     
  25 N25           -2.5609    -1.0736    -1.1561 N.1     
  26 H26           -1.1587     2.0621    -0.6701 H       
  27 H27            0.7336    -1.7690    -0.3192 H       
  28 H28            2.9664     1.8172     0.4080 H       
  29 H29            0.9384     6.0486     0.4159 H       
  30 H30           -0.9229     5.7235     4.1161 H       
  31 H31           -0.1510     2.2253     2.0117 H       
  32 H32            2.2774    -2.6569     0.1286 H       
  33 H33            3.3129    -4.8353    -0.0004 H       
  34 H34            5.3909    -6.1622     0.2971 H       
  35 H35            7.4426    -2.5297     1.2226 H       
@<TRIPOS>BOND
   1    1    2 ar
   2    1    6 ar
   3    1   26 1
   4    2    3 ar
   5    2   24 1
   6    3    4 ar
   7    3   27 1
   8    4    5 ar
   9    4   14 1
  10    5    6 ar
  11    5   28 1
  12    6    7 1
  13    7    8 1
  14    8    9 ar
  15    8   13 ar
  16    9   10 ar
  17    9   29 1
  18   10   11 ar
  19   11   12 ar
  20   11   30 1
  21   12   13 ar
  22   13   31 1
  23   14   15 am
  24   14   16 2
  25   15   17 1
  26   15   32 1
  27   17   18 ar
  28   17   22 ar
  29   18   19 ar
  30   18   33 1
  31   19   20 ar
  32   19   34 1
  33   20   21 ar
  34   20   23 1
  35   21   22 ar
  36   21   35 1
  37   24   25 3

#	End of record

