#	Name: ASD03430191
#	Creating user name:	WinNT
#	Creation time:	15. 06. 2019 20:40

#	Modifying user name:	WinNT
#	Modification time:	15. 06. 2019 20:40

#	Program:	/corina/corina34_cracker 3.40 0067  02.08.2006

@<TRIPOS>MOLECULE
ASD03430191
  67   73    0    0    0
SMALL
NO_CHARGES


@<TRIPOS>ATOM
   1 C1            -0.0505     1.4270     0.0995 C.ar    
   2 C2            -0.0212     0.0498     0.0823 C.ar    
   3 C3             1.1865    -0.6162     0.0822 C.ar    
   4 C4             2.3834     0.0950     0.1085 C.ar    
   5 C5             2.3452     1.4839     0.1150 C.ar    
   6 C6             1.1308     2.1593     0.1070 C.ar    
   7 O7             3.4562    -0.7464     0.1395 O.3     
   8 C8             1.5542    -2.0746     0.0465 C.3     
   9 C9             3.0479    -2.0529    -0.3087 C.3     
  10 C10            0.4395    -3.8178     1.0640 C.ar    
  11 C11            1.3004    -2.7626     1.3547 C.ar    
  12 C12            0.7548    -2.8401    -0.9686 C.2     
  13 N13            0.1412    -3.8369    -0.3007 N.am    
  14 O14            0.6763    -2.6066    -2.1562 O.2     
  15 C15            1.7292    -2.5445     2.6451 C.ar    
  16 C16            1.3074    -3.3773     3.6663 C.ar    
  17 C17            0.4543    -4.4299     3.3884 C.ar    
  18 C18            0.0215    -4.6522     2.0979 C.ar    
  19 C19           -0.7368    -4.8252    -0.9321 C.3     
  20 C20           -1.1926     2.4237     0.1247 C.3     
  21 C21           -0.4703     3.7287     0.5358 C.3     
  22 O22            0.8788     3.4979     0.0960 O.3     
  23 C23           -2.1562    -4.3192    -0.9160 C.ar    
  24 C24           -2.6298    -3.5630    -1.9736 C.ar    
  25 C25           -3.9282    -3.0971    -1.9653 C.ar    
  26 C26           -4.7647    -3.3900    -0.8869 C.ar    
  27 C27           -4.2805    -4.1533     0.1768 C.ar    
  28 C28           -2.9816    -4.6175     0.1535 C.ar    
  29 C29           -6.1569    -2.8936    -0.8711 C.2     
  30 N30           -6.9621    -3.1782     0.1716 N.am    
  31 O31           -6.5757    -2.2287    -1.7987 O.2     
  32 C32           -8.2390    -2.6127     0.2437 C.ar    
  33 C33           -8.4605    -1.3303    -0.2409 C.ar    
  34 C34           -9.7231    -0.7748    -0.1686 C.ar    
  35 C35          -10.7658    -1.4941     0.3856 C.ar    
  36 C36          -10.5485    -2.7713     0.8696 C.ar    
  37 C37           -9.2899    -3.3347     0.7951 C.ar    
  38 C38           -9.0541    -4.7266     1.3223 C.3     
  39 C39           -8.5337    -4.6464     2.7589 C.3     
  40 H40           -0.9452    -0.5092     0.0691 H       
  41 H41            3.2685     2.0441     0.1269 H       
  42 H42            3.1915    -2.1555    -1.3844 H       
  43 H43            3.5855    -2.8327     0.2307 H       
  44 H44            2.3954    -1.7221     2.8602 H       
  45 H45            1.6438    -3.2060     4.6782 H       
  46 H46            0.1260    -5.0807     4.1852 H       
  47 H47           -0.6447    -5.4761     1.8883 H       
  48 H48           -0.4202    -4.9866    -1.9626 H       
  49 H49           -0.6799    -5.7651    -0.3831 H       
  50 H50           -1.6446     2.5231    -0.8621 H       
  51 H51           -1.9393     2.1416     0.8669 H       
  52 H52           -0.9023     4.5875     0.0220 H       
  53 H53           -0.5059     3.8658     1.6165 H       
  54 H54           -1.9814    -3.3368    -2.8071 H       
  55 H55           -4.2966    -2.5067    -2.7913 H       
  56 H56           -4.9226    -4.3835     1.0141 H       
  57 H57           -2.6059    -5.2086     0.9756 H       
  58 H58           -6.6558    -3.7753     0.8720 H       
  59 H59           -7.6464    -0.7678    -0.6736 H       
  60 H60           -9.8960     0.2226    -0.5450 H       
  61 H61          -11.7521    -1.0575     0.4410 H       
  62 H62          -11.3649    -3.3303     1.3025 H       
  63 H63           -9.9901    -5.2849     1.3056 H       
  64 H64           -8.3183    -5.2322     0.6970 H       
  65 H65           -8.3631    -5.6532     3.1402 H       
  66 H66           -7.5977    -4.0881     2.7756 H       
  67 H67           -9.2695    -4.1409     3.3842 H       
@<TRIPOS>BOND
   1    1    2 ar
   2    1    6 ar
   3    1   20 1
   4    2    3 ar
   5    2   40 1
   6    3    4 ar
   7    3    8 1
   8    4    5 ar
   9    4    7 1
  10    5    6 ar
  11    5   41 1
  12    6   22 1
  13    7    9 1
  14    8    9 1
  15    8   11 1
  16    8   12 1
  17    9   42 1
  18    9   43 1
  19   10   11 ar
  20   10   13 1
  21   10   18 ar
  22   11   15 ar
  23   12   13 am
  24   12   14 2
  25   13   19 1
  26   15   16 ar
  27   15   44 1
  28   16   17 ar
  29   16   45 1
  30   17   18 ar
  31   17   46 1
  32   18   47 1
  33   19   23 1
  34   19   48 1
  35   19   49 1
  36   20   21 1
  37   20   50 1
  38   20   51 1
  39   21   22 1
  40   21   52 1
  41   21   53 1
  42   23   24 ar
  43   23   28 ar
  44   24   25 ar
  45   24   54 1
  46   25   26 ar
  47   25   55 1
  48   26   27 ar
  49   26   29 1
  50   27   28 ar
  51   27   56 1
  52   28   57 1
  53   29   30 am
  54   29   31 2
  55   30   32 1
  56   30   58 1
  57   32   33 ar
  58   32   37 ar
  59   33   34 ar
  60   33   59 1
  61   34   35 ar
  62   34   60 1
  63   35   36 ar
  64   35   61 1
  65   36   37 ar
  66   36   62 1
  67   37   38 1
  68   38   39 1
  69   38   63 1
  70   38   64 1
  71   39   65 1
  72   39   66 1
  73   39   67 1

#	End of record

