#	Name: ASD02038687
#	Creating user name:	WinNT
#	Creation time:	15. 06. 2019 20:17

#	Modifying user name:	WinNT
#	Modification time:	15. 06. 2019 20:17

#	Program:	/corina/corina34_cracker 3.40 0067  02.08.2006

@<TRIPOS>MOLECULE
ASD02038687
  44   45    0    0    0
SMALL
NO_CHARGES


@<TRIPOS>ATOM
   1 C1            -0.0167     1.3781     0.0096 C.ar    
   2 C2             0.0021    -0.0041     0.0020 C.ar    
   3 C3             1.2084    -0.6789    -0.0132 C.ar    
   4 C4             1.2289    -2.1857    -0.0210 C.3     
   5 C5             1.2217    -2.6884    -1.4660 C.3     
   6 C6             1.2421    -4.1952    -1.4738 C.2     
   7 N7             1.2399    -4.8632    -2.6444 N.am    
   8 N8             1.2589    -6.2640    -2.6516 N.am    
   9 C9             1.1709     2.0855     0.0021 C.ar    
  10 C10            2.3773     1.4107    -0.0131 C.ar    
  11 C11            2.3960     0.0285    -0.0217 C.ar    
  12 O12            1.2606    -4.8069    -0.4267 O.2     
  13 C13            0.1951    -7.0382    -2.9322 C.2     
  14 C14            0.6059    -8.4546    -2.8393 C.ar    
  15 C15            1.9713    -8.4379    -2.4879 C.ar    
  16 C16            2.3447    -7.0119    -2.3846 C.2     
  17 C17           -0.0455    -9.6644    -3.0182 C.ar    
  18 C18            0.6509   -10.8520    -2.8501 C.ar    
  19 C19            1.9922   -10.8356    -2.5049 C.ar    
  20 C20            2.6559    -9.6313    -2.3232 C.ar    
  21 Cl21          -0.1637   -12.3687    -3.0732 Cl      
  22 Cl22           2.8481   -12.3318    -2.2987 Cl      
  23 O23            3.4458    -6.5863    -2.0991 O.2     
  24 O24           -0.9169    -6.6397    -3.2144 O.2     
  25 C25            1.1505     3.5924     0.0099 C.3     
  26 H26           -0.9592     1.9054     0.0170 H       
  27 H27           -0.9258    -0.5567     0.0083 H       
  28 H28            2.1287    -2.5395     0.4823 H       
  29 H29            0.3490    -2.5637     0.4996 H       
  30 H30            0.3219    -2.3346    -1.9693 H       
  31 H31            2.1016    -2.3104    -1.9866 H       
  32 H32            1.2251    -4.3740    -3.4819 H       
  33 H33            3.3051     1.9634    -0.0197 H       
  34 H34            3.3385    -0.4987    -0.0332 H       
  35 H35           -1.0914    -9.6825    -3.2870 H       
  36 H36            3.7018    -9.6238    -2.0543 H       
  37 H37            1.1552     3.9505     1.0394 H       
  38 H38            2.0306     3.9704    -0.5103 H       
  39 H39            0.2509     3.9462    -0.4937 H       
  40 S40           11.0092    10.6302     6.0485 S.3     
  41 O41           11.0318     8.9704     6.0394 O.2     
  42 O42           12.4354    11.4797     6.0395 O.2     
  43 N43            9.5352    11.4547     6.0600 N.2     
  44 H44            8.7018    10.9584     6.0613 H       
@<TRIPOS>BOND
   1    1    2 ar
   2    1    9 ar
   3    1   26 1
   4    2    3 ar
   5    2   27 1
   6    3    4 1
   7    3   11 ar
   8    4    5 1
   9    4   28 1
  10    4   29 1
  11    5    6 1
  12    5   30 1
  13    5   31 1
  14    6    7 am
  15    6   12 2
  16    7    8 1
  17    7   32 1
  18    8   13 am
  19    8   16 am
  20    9   10 ar
  21    9   25 1
  22   10   11 ar
  23   10   33 1
  24   11   34 1
  25   13   14 1
  26   13   24 2
  27   14   15 ar
  28   14   17 ar
  29   15   16 1
  30   15   20 ar
  31   16   23 2
  32   17   18 ar
  33   17   35 1
  34   18   19 ar
  35   18   21 1
  36   19   20 ar
  37   19   22 1
  38   20   36 1
  39   25   37 1
  40   25   38 1
  41   25   39 1
  42   40   41 2
  43   40   42 2
  44   40   43 2
  45   43   44 1

#	End of record

