#	Name: ASD07930606
#	Creating user name:	WinNT
#	Creation time:	15. 06. 2019 21:12

#	Modifying user name:	WinNT
#	Modification time:	15. 06. 2019 21:12

#	Program:	/corina/corina34_cracker 3.40 0067  02.08.2006

@<TRIPOS>MOLECULE
ASD07930606
  27   26    0    0    0
SMALL
NO_CHARGES


@<TRIPOS>ATOM
   1 C1            -0.0184     1.5028     0.0103 C.2     
   2 C2             0.0021    -0.0041     0.0020 C.3     
   3 O3             1.0236     2.1234     0.0037 O.2     
   4 N4            -1.1946     2.1607     0.0195 N.am    
   5 C5            -1.2145     3.6256     0.0275 C.3     
   6 O6            -2.4111     1.4361     0.0213 O.3     
   7 C7            -2.9043     1.1316     1.3275 C.3     
   8 O8             1.3556    -0.4620    -0.0134 O.3     
   9 C9             1.5211    -2.3849    -1.4679 C.3     
  10 C10            1.4878    -1.8849    -0.0223 C.3     
  11 C11            2.7661    -2.2750     0.6739 C.2     
  12 C12            2.7263    -3.0417     1.7353 C.2     
  13 H13           -0.4983    -0.3791     0.8948 H       
  14 H14           -0.5153    -0.3696    -0.8850 H       
  15 H15           -1.2243     3.9944    -0.9981 H       
  16 H16           -2.1068     3.9740     0.5475 H       
  17 H17           -0.3271     3.9982     0.5392 H       
  18 H18           -3.8383     0.5760     1.2428 H       
  19 H19           -2.1700     0.5286     1.8616 H       
  20 H20           -3.0808     2.0579     1.8743 H       
  21 H21            2.3688    -1.9380    -1.9874 H       
  22 H22            1.6219    -3.4702    -1.4746 H       
  23 H23            0.5965    -2.1027    -1.9714 H       
  24 H24            0.6401    -2.3317     0.4973 H       
  25 H25            3.7151    -1.9225     0.2977 H       
  26 H26            1.7772    -3.3943     2.1115 H       
  27 H27            3.6424    -3.3213     2.2342 H       
@<TRIPOS>BOND
   1    1    2 1
   2    1    3 2
   3    1    4 am
   4    2    8 1
   5    2   13 1
   6    2   14 1
   7    4    5 1
   8    4    6 1
   9    5   15 1
  10    5   16 1
  11    5   17 1
  12    6    7 1
  13    7   18 1
  14    7   19 1
  15    7   20 1
  16    8   10 1
  17    9   10 1
  18    9   21 1
  19    9   22 1
  20    9   23 1
  21   10   11 1
  22   10   24 1
  23   11   12 2
  24   11   25 1
  25   12   26 1
  26   12   27 1

#	End of record

