#	Name: ASD00310022
#	Creating user name:	WinNT
#	Creation time:	15. 06. 2019 18:33

#	Modifying user name:	WinNT
#	Modification time:	15. 06. 2019 18:33

#	Program:	/corina/corina34_cracker 3.40 0067  02.08.2006

@<TRIPOS>MOLECULE
ASD00310022
  40   42    0    0    0
SMALL
NO_CHARGES


@<TRIPOS>ATOM
   1 N1            -0.0163     1.3499     0.0095 N.pl3   
   2 C2             0.0021    -0.0041     0.0020 C.2     
   3 C3             1.2922    -0.4483    -0.0127 C.2     
   4 C4             2.1476     0.7538    -0.0144 C.ar    
   5 C5             3.5232     0.9581    -0.0264 C.ar    
   6 C6             4.0242     2.2536    -0.0243 C.ar    
   7 C7             3.1469     3.3435    -0.0100 C.ar    
   8 C8             1.7853     3.1435     0.0019 C.ar    
   9 C9             1.2697     1.8501    -0.0001 C.ar    
  10 C10            1.7402    -1.8454    -0.0245 C.2     
  11 O11            2.9286    -2.1027    -0.0367 O.2     
  12 O12            0.8342    -2.8441    -0.0217 O.3     
  13 C13            5.4901     2.4818    -0.0365 C.ar    
  14 C14            6.0523     3.3602    -0.9612 C.ar    
  15 C15            7.4154     3.5702    -0.9702 C.ar    
  16 C16            8.2273     2.9075    -0.0598 C.ar    
  17 C17            7.6703     2.0317     0.8620 C.ar    
  18 C18            6.3071     1.8226     0.8803 C.ar    
  19 O19            9.5700     3.1161    -0.0714 O.3     
  20 C20           10.3459     2.4018     0.8928 C.3     
  21 C21           11.8234     2.7628     0.7272 C.3     
  22 O22           12.0138     4.1447     1.0376 O.3     
  23 Cl23           3.7804     4.9597    -0.0068 Cl      
  24 C24            1.3493    -4.2016    -0.0339 C.3     
  25 H25           -0.8206     1.8921     0.0164 H       
  26 H26           -0.8729    -0.6372     0.0073 H       
  27 H27            4.1977     0.1147    -0.0370 H       
  28 H28            1.1158     3.9909     0.0132 H       
  29 H29            5.4213     3.8755    -1.6702 H       
  30 H30            7.8516     4.2507    -1.6865 H       
  31 H31            8.3045     1.5170     1.5686 H       
  32 H32            5.8738     1.1448     1.6008 H       
  33 H33           10.0162     2.6713     1.8962 H       
  34 H34           10.2147     1.3301     0.7429 H       
  35 H35           12.4243     2.1528     1.4017 H       
  36 H36           12.1299     2.5760    -0.3020 H       
  37 H37           12.9294     4.4441     0.9537 H       
  38 H38            1.9505    -4.3541    -0.9302 H       
  39 H39            1.9667    -4.3638     0.8496 H       
  40 H40            0.5174    -4.9059    -0.0301 H       
@<TRIPOS>BOND
   1    1    2 1
   2    1    9 1
   3    1   25 1
   4    2    3 2
   5    2   26 1
   6    3    4 1
   7    3   10 1
   8    4    5 ar
   9    4    9 ar
  10    5    6 ar
  11    5   27 1
  12    6    7 ar
  13    6   13 1
  14    7    8 ar
  15    7   23 1
  16    8    9 ar
  17    8   28 1
  18   10   11 2
  19   10   12 1
  20   12   24 1
  21   13   14 ar
  22   13   18 ar
  23   14   15 ar
  24   14   29 1
  25   15   16 ar
  26   15   30 1
  27   16   17 ar
  28   16   19 1
  29   17   18 ar
  30   17   31 1
  31   18   32 1
  32   19   20 1
  33   20   21 1
  34   20   33 1
  35   20   34 1
  36   21   22 1
  37   21   35 1
  38   21   36 1
  39   22   37 1
  40   24   38 1
  41   24   39 1
  42   24   40 1

#	End of record

