#	Name: ASD01914295
#	Creating user name:	WinNT
#	Creation time:	15. 06. 2019 20:03

#	Modifying user name:	WinNT
#	Modification time:	15. 06. 2019 20:03

#	Program:	/corina/corina34_cracker 3.40 0067  02.08.2006

@<TRIPOS>MOLECULE
ASD01914295
  37   40    0    0    0
SMALL
NO_CHARGES


@<TRIPOS>ATOM
   1 C1            -0.2011     1.7784     0.3982 C.ar    
   2 C2            -0.2365     0.4161     0.6317 C.ar    
   3 C3             0.9407    -0.2907     0.7941 C.ar    
   4 C4             2.1556     0.3630     0.7230 C.ar    
   5 C5             2.1938     1.7298     0.4884 C.ar    
   6 C6             1.0112     2.4368     0.3263 C.ar    
   7 O7             3.3877     2.3752     0.4184 O.3     
   8 C8             3.3510     3.7827     0.1742 C.3     
   9 C9             4.7576     4.3218     0.1300 C.2     
  10 N10            5.4834     4.4053    -0.9390 N.2     
  11 C11            6.6915     4.8962    -0.8232 C.2     
  12 C12            6.9971     5.2624     0.4629 C.2     
  13 S13            5.6180     4.9167     1.4840 S.3     
  14 C14            7.7244     5.0692    -1.9249 C.3     
  15 C15            8.6175     6.2596    -1.5812 C.3     
  16 N16            9.0971     6.2202    -0.2045 N.am    
  17 C17            8.2923     5.8534     0.8198 C.2     
  18 O18            8.6262     6.0061     1.9800 O.2     
  19 C19           10.4870     6.5876     0.0772 C.3     
  20 C20           11.5831     5.8478    -0.6926 C.3     
  21 C21           11.2652     7.3067    -1.0266 C.3     
  22 H22           -1.1219     2.3275     0.2676 H       
  23 H23           -1.1853    -0.0968     0.6876 H       
  24 H24            0.9104    -1.3547     0.9770 H       
  25 H25            3.0748    -0.1895     0.8502 H       
  26 H26            1.0384     3.5008     0.1432 H       
  27 H27            2.8587     3.9733    -0.7795 H       
  28 H28            2.7979     4.2759     0.9735 H       
  29 H29            8.3315     4.1672    -2.0013 H       
  30 H30            7.2195     5.2533    -2.8733 H       
  31 H31            9.4756     6.2622    -2.2533 H       
  32 H32            8.0521     7.1793    -1.7312 H       
  33 H33           10.6991     6.8695     1.1085 H       
  34 H34           12.5163     5.6435    -0.1677 H       
  35 H35           11.2699     5.0879    -1.4085 H       
  36 H36           10.7430     7.5065    -1.9622 H       
  37 H37           11.9893     8.0622    -0.7215 H       
@<TRIPOS>BOND
   1    1    2 ar
   2    1    6 ar
   3    1   22 1
   4    2    3 ar
   5    2   23 1
   6    3    4 ar
   7    3   24 1
   8    4    5 ar
   9    4   25 1
  10    5    6 ar
  11    5    7 1
  12    6   26 1
  13    7    8 1
  14    8    9 1
  15    8   27 1
  16    8   28 1
  17    9   10 2
  18    9   13 1
  19   10   11 1
  20   11   12 2
  21   11   14 1
  22   12   13 1
  23   12   17 1
  24   14   15 1
  25   14   29 1
  26   14   30 1
  27   15   16 1
  28   15   31 1
  29   15   32 1
  30   16   17 am
  31   16   19 1
  32   17   18 2
  33   19   20 1
  34   19   21 1
  35   19   33 1
  36   20   21 1
  37   20   34 1
  38   20   35 1
  39   21   36 1
  40   21   37 1

#	End of record

