#	Name: ASD06590049
#	Creating user name:	WinNT
#	Creation time:	15. 06. 2019 21:06

#	Modifying user name:	WinNT
#	Modification time:	15. 06. 2019 21:06

#	Program:	/corina/corina34_cracker 3.40 0067  02.08.2006

@<TRIPOS>MOLECULE
ASD06590049
 243  242    0    0    0
SMALL
NO_CHARGES


@<TRIPOS>ATOM
   1 C1            -2.0514    -3.8607     1.9121 C.2     
   2 O2            -2.4125    -4.9935     2.1515 O.2     
   3 N3             0.1965    -4.7297     2.1961 N.am    
   4 C4            -0.5822    -3.5257     1.8955 C.3     
   5 C5            -0.1947    -2.9999     0.5119 C.3     
   6 O6            -0.5731    -3.9531    -0.4831 O.3     
   7 C7            -5.1928    -1.9923     1.3512 C.2     
   8 O8            -4.6265    -0.9410     1.1393 O.2     
   9 N9            -2.9640    -2.9026     1.6555 N.am    
  10 C10           -4.3920    -3.2295     1.6658 C.3     
  11 C11           -8.6993    -0.9856     1.5845 C.2     
  12 O12           -9.0041    -1.9873     2.1965 O.2     
  13 N13           -6.5384    -2.0541     1.3053 N.am    
  14 C14           -7.3170    -0.8514     0.9995 C.3     
  15 C15           -7.4194    -0.6823    -0.5176 C.3     
  16 C16           -6.0274    -0.4216    -1.0968 C.3     
  17 C17           -6.1299    -0.2524    -2.6140 C.3     
  18 N18           -4.7971    -0.0028    -3.1686 N.pl3   
  19 C19           -4.6392     0.1823    -4.5218 C.2     
  20 N20           -3.4534     0.4044    -5.0152 N.2     
  21 N21           -5.7321     0.1330    -5.3544 N.pl3   
  22 C22          -11.9007     0.7408     1.2195 C.2     
  23 O23          -11.4857     1.6805     0.5747 O.2     
  24 N24           -9.5968     0.0075     1.4274 N.am    
  25 C25          -10.9406    -0.1230     1.9961 C.3     
  26 C26          -10.9210     0.3244     3.4591 C.3     
  27 C27          -12.3374     0.2532     4.0332 C.3     
  28 C28           -9.9986    -0.5956     4.2614 C.3     
  29 C29          -15.5052     1.2878     1.2465 C.2     
  30 O30          -15.7281     0.4080     2.0510 O.2     
  31 N31          -13.2207     0.4691     1.2414 N.am    
  32 C32          -14.1637     1.3623     0.5638 C.3     
  33 C33          -14.3109     0.9347    -0.8978 C.3     
  34 C34          -15.2392     1.9104    -1.6237 C.3     
  35 C35          -14.5568     3.2751    -1.7369 C.3     
  36 C36          -15.5463     1.3761    -3.0241 C.3     
  37 C37          -18.7995     2.7711     0.6898 C.2     
  38 O38          -18.4455     3.3085    -0.3382 O.2     
  39 N39          -16.4571     2.1987     0.9630 N.am    
  40 C40          -17.7868     2.0809     1.5667 C.3     
  41 C41          -17.7789     2.7356     2.9495 C.3     
  42 C42          -22.2641     3.8865     1.0301 C.2     
  43 O43          -22.3817     3.4785     2.1661 O.2     
  44 N44          -20.0987     2.7911     1.0479 N.am    
  45 C45          -21.0832     3.4621     0.1955 C.3     
  46 C46          -21.5511     2.4998    -0.8981 C.3     
  47 C47          -20.3492     2.0532    -1.7329 C.3     
  48 O48          -22.1644     1.3576    -0.2970 O.3     
  49 C49          -25.4978     5.4505     0.3519 C.2     
  50 O50          -25.3093     5.4508    -0.8462 O.2     
  51 N51          -23.1895     4.7194     0.5140 N.am    
  52 C52          -24.3860     5.0558     1.2895 C.3     
  53 C53          -24.0734     6.2219     2.2294 C.3     
  54 C54          -23.0332     5.7807     3.2610 C.3     
  55 C55          -22.7205     6.9468     4.2009 C.3     
  56 C56          -21.6803     6.5056     5.2325 C.3     
  57 N57          -21.3802     7.6253     6.1349 N.3     
  58 C58          -28.7534     7.0853     0.6553 C.2     
  59 O59          -28.5614     7.3764     1.8170 O.2     
  60 N60          -26.7016     5.8033     0.8448 N.am    
  61 C61          -27.7824     6.1870    -0.0667 C.3     
  62 C62          -28.5117     4.9318    -0.5501 C.3     
  63 C63          -27.5579     4.0792    -1.3894 C.3     
  64 C64          -28.2467     2.7666    -1.7683 C.3     
  65 C65          -27.1774     4.8410    -2.6605 C.3     
  66 C66          -32.1330     8.3439     0.0576 C.2     
  67 O67          -32.2938     7.6184    -0.9009 O.2     
  68 N68          -29.8350     7.5652     0.0103 N.am    
  69 C69          -30.7788     8.4385     0.7122 C.3     
  70 C70          -30.2811     9.8839     0.6477 C.3     
  71 C71          -28.9660    10.0053     1.4201 C.3     
  72 C72          -28.4683    11.4507     1.3556 C.3     
  73 N73          -27.2090    11.5670     2.0952 N.pl3   
  74 C74          -26.5692    12.7811     2.1765 C.2     
  75 N75          -27.0829    13.8287     1.5955 N.2     
  76 N76          -25.3875    12.8903     2.8706 N.pl3   
  77 C77          -35.2581    10.2371     0.1680 C.2     
  78 O78          -34.7609    11.1269     0.8252 O.2     
  79 N79          -33.1653     9.0655     0.5373 N.am    
  80 C80          -34.4816     8.9735    -0.0990 C.3     
  81 C81          -35.2427     7.7764     0.4743 C.3     
  82 C82          -34.5187     6.4828     0.0956 C.3     
  83 C83          -35.2683     5.3038     0.6603 C.2     
  84 O84          -36.2781     5.4800     1.3001 O.2     
  85 O85          -34.8143     4.0578     0.4526 O.3     
  86 C86          -37.9534    11.4979     1.2697 C.2     
  87 O87          -37.8298    10.4969     1.9350 O.2     
  88 N88          -36.5051    10.3784    -0.3234 N.am    
  89 C89          -37.2599    11.6068    -0.0638 C.3     
  90 C90          -38.3022    11.8075    -1.1657 C.3     
  91 C91          -37.6107    11.7932    -2.5305 C.3     
  92 O92          -39.2649    10.7530    -1.1085 O.3     
  93 O93          -38.7084    12.5130     1.7185 O.3     
  94 C94            1.4307    -4.6190     2.7262 C.2     
  95 O95            1.8966    -3.5227     2.9544 O.2     
  96 C96           17.4006   -11.8443     9.3554 C.3     
  97 C97           16.5873   -10.5869     9.0415 C.3     
  98 C98           15.2336   -10.9890     8.4526 C.3     
  99 C99           14.4203    -9.7317     8.1386 C.3     
 100 C100          13.0666   -10.1337     7.5497 C.3     
 101 C101          12.2533    -8.8764     7.2358 C.3     
 102 C102          10.8997    -9.2785     6.6468 C.3     
 103 C103          10.0864    -8.0211     6.3329 C.3     
 104 C104           8.7327    -8.4232     5.7440 C.3     
 105 C105           7.9194    -7.1659     5.4301 C.3     
 106 C106           6.5657    -7.5679     4.8411 C.3     
 107 C107           5.7524    -6.3106     4.5272 C.3     
 108 C108           4.3988    -6.7127     3.9383 C.3     
 109 C109           3.5854    -5.4553     3.6243 C.3     
 110 C110           2.2318    -5.8574     3.0354 C.3     
 111 H111          -0.1761    -5.6064     2.0136 H       
 112 H112          -0.3751    -2.7624     2.6455 H       
 113 H113          -0.7076    -2.0565     0.3250 H       
 114 H114           0.8830    -2.8416     0.4722 H       
 115 H115          -0.3572    -3.6851    -1.3868 H       
 116 H116          -2.6752    -1.9966     1.4641 H       
 117 H117          -4.6722    -3.6030     2.6507 H       
 118 H118          -4.5950    -3.9942     0.9160 H       
 119 H119          -6.9913    -2.8950     1.4748 H       
 120 H120          -6.8234     0.0200     1.4298 H       
 121 H121          -7.8317    -1.5904    -0.9575 H       
 122 H122          -8.0717     0.1606    -0.7460 H       
 123 H123          -5.6151     0.4866    -0.6570 H       
 124 H124          -5.3752    -1.2644    -0.8684 H       
 125 H125          -6.5422    -1.1605    -3.0538 H       
 126 H126          -6.7822     0.5905    -2.8424 H       
 127 H127          -4.0260     0.0320    -2.5811 H       
 128 H128          -3.3420     0.5349    -5.9699 H       
 129 H129          -6.6145    -0.0323    -4.9872 H       
 130 H130          -5.6207     0.2635    -6.3091 H       
 131 H131          -9.3530     0.8086     0.9379 H       
 132 H132         -11.2600    -1.1635     1.9386 H       
 133 H133         -10.5551     1.3493     3.5207 H       
 134 H134         -12.7137    -0.7661     3.9468 H       
 135 H135         -12.3191     0.5460     5.0830 H       
 136 H136         -12.9886     0.9291     3.4789 H       
 137 H137          -8.9896    -0.5449     3.8523 H       
 138 H138          -9.9846    -0.2769     5.3036 H       
 139 H139         -10.3646    -1.6205     4.1997 H       
 140 H140         -13.5462    -0.3178     1.7058 H       
 141 H141         -13.7903     2.3854     0.6072 H       
 142 H142         -13.3323     0.9388    -1.3779 H       
 143 H143         -14.7329    -0.0694    -0.9419 H       
 144 H144         -16.1679     2.0140    -1.0626 H       
 145 H145         -13.6552     3.1814    -2.3422 H       
 146 H146         -15.2381     3.9842    -2.2072 H       
 147 H147         -14.2909     3.6320    -0.7419 H       
 148 H148         -16.0325     0.4039    -2.9435 H       
 149 H149         -16.2077     2.0713    -3.5412 H       
 150 H150         -14.6176     1.2725    -3.5852 H       
 151 H151         -16.2619     2.9324     0.3592 H       
 152 H152         -18.0491     1.0275     1.6649 H       
 153 H153         -17.5166     3.7890     2.8512 H       
 154 H154         -18.7682     2.6479     3.3986 H       
 155 H155         -17.0464     2.2364     3.5837 H       
 156 H156         -20.3818     2.3613     1.8701 H       
 157 H157         -20.6283     4.3400    -0.2633 H       
 158 H158         -22.2729     3.0036    -1.5410 H       
 159 H159         -19.6775     1.4587    -1.1136 H       
 160 H160         -20.6944     1.4527    -2.5745 H       
 161 H161         -19.8195     2.9300    -2.1052 H       
 162 H162         -22.9352     1.5663     0.2483 H       
 163 H163         -23.0633     5.0961    -0.3709 H       
 164 H164         -24.6948     4.1899     1.8751 H       
 165 H165         -23.6802     7.0587     1.6520 H       
 166 H166         -24.9848     6.5303     2.7415 H       
 167 H167         -23.4263     4.9440     3.8385 H       
 168 H168         -22.1217     5.4724     2.7490 H       
 169 H169         -22.3274     7.7836     3.6235 H       
 170 H170         -23.6320     7.2552     4.7130 H       
 171 H171         -22.0735     5.6689     5.8100 H       
 172 H172         -20.7689     6.1973     4.7204 H       
 173 H173         -22.2204     7.9716     6.5733 H       
 174 H174         -20.6951     7.3589     6.8261 H       
 175 H175         -26.8524     5.8030     1.8030 H       
 176 H176         -27.3648     6.7169    -0.9228 H       
 177 H177         -28.8526     4.3557     0.3101 H       
 178 H178         -29.3698     5.2211    -1.1568 H       
 179 H179         -26.6589     3.8642    -0.8117 H       
 180 H180         -29.1457     2.9816    -2.3460 H       
 181 H181         -27.5672     2.1592    -2.3663 H       
 182 H182         -28.5178     2.2239    -0.8628 H       
 183 H183         -26.6867     5.7761    -2.3905 H       
 184 H184         -26.4979     4.2336    -3.2584 H       
 185 H185         -28.0764     5.0560    -3.2381 H       
 186 H186         -29.9885     7.3325    -0.9188 H       
 187 H187         -30.8563     8.1271     1.7539 H       
 188 H188         -30.1189    10.1662    -0.3925 H       
 189 H189         -31.0256    10.5447     1.0917 H       
 190 H190         -29.1282     9.7230     2.4604 H       
 191 H191         -28.2215     9.3445     0.9761 H       
 192 H192         -28.3061    11.7330     0.3154 H       
 193 H193         -29.2128    12.1115     1.7996 H       
 194 H194         -26.8267    10.7874     2.5276 H       
 195 H195         -26.6314    14.6853     1.6529 H       
 196 H196         -25.0052    12.1106     3.3030 H       
 197 H197         -24.9360    13.7469     2.9280 H       
 198 H198         -33.0366     9.6457     1.3039 H       
 199 H199         -34.3572     8.8438    -1.1741 H       
 200 H200         -35.2898     7.8619     1.5599 H       
 201 H201         -36.2536     7.7596     0.0670 H       
 202 H202         -34.4716     6.3973    -0.9901 H       
 203 H203         -33.5078     6.4996     0.5029 H       
 204 H204         -35.3290     3.3337     0.8344 H       
 205 H205         -36.9028     9.6667    -0.8490 H       
 206 H206         -36.5775    12.4566    -0.0501 H       
 207 H207         -38.8031    12.7649    -1.0221 H       
 208 H208         -36.8764    12.5976    -2.5741 H       
 209 H209         -37.1099    10.8358    -2.6741 H       
 210 H210         -38.3533    11.9362    -3.3155 H       
 211 H211         -39.9578    10.8161    -1.7801 H       
 212 H212         -39.1333    12.3969     2.5793 H       
 213 H213          16.8586   -12.4571    10.0757 H       
 214 H214          17.5576   -12.4136     8.4393 H       
 215 H215          18.3650   -11.5578     9.7750 H       
 216 H216          16.4303   -10.0176     9.9576 H       
 217 H217          17.1293    -9.9741     8.3212 H       
 218 H218          15.3906   -11.5583     7.5364 H       
 219 H219          14.6916   -11.6019     9.1728 H       
 220 H220          14.2633    -9.1624     9.0548 H       
 221 H221          14.9623    -9.1188     7.4184 H       
 222 H222          13.2237   -10.7030     6.6335 H       
 223 H223          12.5247   -10.7466     8.2699 H       
 224 H224          12.0963    -8.3071     8.1519 H       
 225 H225          12.7953    -8.2635     6.5155 H       
 226 H226          11.0567    -9.8478     5.7307 H       
 227 H227          10.3577    -9.8913     7.3671 H       
 228 H228           9.9294    -7.4518     7.2491 H       
 229 H229          10.6283    -7.4083     5.6127 H       
 230 H230           8.8897    -8.9925     4.8278 H       
 231 H231           8.1907    -9.0361     6.4642 H       
 232 H232           7.7624    -6.5966     6.3462 H       
 233 H233           8.4614    -6.5530     4.7098 H       
 234 H234           6.7227    -8.1373     3.9250 H       
 235 H235           6.0238    -8.1808     5.5614 H       
 236 H236           5.5954    -5.7413     5.4433 H       
 237 H237           6.2944    -5.6977     3.8070 H       
 238 H238           4.5558    -7.2820     3.0221 H       
 239 H239           3.8568    -7.3255     4.6585 H       
 240 H240           3.4284    -4.8860     4.5405 H       
 241 H241           4.1274    -4.8425     2.9041 H       
 242 H242           1.6898    -6.4703     3.7557 H       
 243 H243           2.3888    -6.4267     2.1193 H       
@<TRIPOS>BOND
   1    1    2 2
   2    1    4 1
   3    1    9 am
   4    3   94 am
   5    3    4 1
   6    3  111 1
   7    4    5 1
   8    4  112 1
   9    5    6 1
  10    5  113 1
  11    5  114 1
  12    6  115 1
  13    7    8 2
  14    7   10 1
  15    7   13 am
  16    9   10 1
  17    9  116 1
  18   10  117 1
  19   10  118 1
  20   11   12 2
  21   11   14 1
  22   11   24 am
  23   13   14 1
  24   13  119 1
  25   14   15 1
  26   14  120 1
  27   15   16 1
  28   15  121 1
  29   15  122 1
  30   16   17 1
  31   16  123 1
  32   16  124 1
  33   17   18 1
  34   17  125 1
  35   17  126 1
  36   18   19 1
  37   18  127 1
  38   19   20 2
  39   19   21 1
  40   20  128 1
  41   21  129 1
  42   21  130 1
  43   22   23 2
  44   22   25 1
  45   22   31 am
  46   24   25 1
  47   24  131 1
  48   25   26 1
  49   25  132 1
  50   26   27 1
  51   26   28 1
  52   26  133 1
  53   27  134 1
  54   27  135 1
  55   27  136 1
  56   28  137 1
  57   28  138 1
  58   28  139 1
  59   29   30 2
  60   29   32 1
  61   29   39 am
  62   31   32 1
  63   31  140 1
  64   32   33 1
  65   32  141 1
  66   33   34 1
  67   33  142 1
  68   33  143 1
  69   34   35 1
  70   34   36 1
  71   34  144 1
  72   35  145 1
  73   35  146 1
  74   35  147 1
  75   36  148 1
  76   36  149 1
  77   36  150 1
  78   37   38 2
  79   37   40 1
  80   37   44 am
  81   39   40 1
  82   39  151 1
  83   40   41 1
  84   40  152 1
  85   41  153 1
  86   41  154 1
  87   41  155 1
  88   42   43 2
  89   42   45 1
  90   42   51 am
  91   44   45 1
  92   44  156 1
  93   45   46 1
  94   45  157 1
  95   46   47 1
  96   46   48 1
  97   46  158 1
  98   47  159 1
  99   47  160 1
 100   47  161 1
 101   48  162 1
 102   49   50 2
 103   49   52 1
 104   49   60 am
 105   51   52 1
 106   51  163 1
 107   52   53 1
 108   52  164 1
 109   53   54 1
 110   53  165 1
 111   53  166 1
 112   54   55 1
 113   54  167 1
 114   54  168 1
 115   55   56 1
 116   55  169 1
 117   55  170 1
 118   56   57 1
 119   56  171 1
 120   56  172 1
 121   57  173 1
 122   57  174 1
 123   58   59 2
 124   58   61 1
 125   58   68 am
 126   60   61 1
 127   60  175 1
 128   61   62 1
 129   61  176 1
 130   62   63 1
 131   62  177 1
 132   62  178 1
 133   63   64 1
 134   63   65 1
 135   63  179 1
 136   64  180 1
 137   64  181 1
 138   64  182 1
 139   65  183 1
 140   65  184 1
 141   65  185 1
 142   66   67 2
 143   66   69 1
 144   66   79 am
 145   68   69 1
 146   68  186 1
 147   69   70 1
 148   69  187 1
 149   70   71 1
 150   70  188 1
 151   70  189 1
 152   71   72 1
 153   71  190 1
 154   71  191 1
 155   72   73 1
 156   72  192 1
 157   72  193 1
 158   73   74 1
 159   73  194 1
 160   74   75 2
 161   74   76 1
 162   75  195 1
 163   76  196 1
 164   76  197 1
 165   77   78 2
 166   77   80 1
 167   77   88 am
 168   79   80 1
 169   79  198 1
 170   80   81 1
 171   80  199 1
 172   81   82 1
 173   81  200 1
 174   81  201 1
 175   82   83 1
 176   82  202 1
 177   82  203 1
 178   83   84 2
 179   83   85 1
 180   85  204 1
 181   86   87 2
 182   86   89 1
 183   86   93 1
 184   88   89 1
 185   88  205 1
 186   89   90 1
 187   89  206 1
 188   90   91 1
 189   90   92 1
 190   90  207 1
 191   91  208 1
 192   91  209 1
 193   91  210 1
 194   92  211 1
 195   93  212 1
 196   94   95 2
 197   94  110 1
 198   96   97 1
 199   96  213 1
 200   96  214 1
 201   96  215 1
 202   97   98 1
 203   97  216 1
 204   97  217 1
 205   98   99 1
 206   98  218 1
 207   98  219 1
 208   99  100 1
 209   99  220 1
 210   99  221 1
 211  100  101 1
 212  100  222 1
 213  100  223 1
 214  101  102 1
 215  101  224 1
 216  101  225 1
 217  102  103 1
 218  102  226 1
 219  102  227 1
 220  103  104 1
 221  103  228 1
 222  103  229 1
 223  104  105 1
 224  104  230 1
 225  104  231 1
 226  105  106 1
 227  105  232 1
 228  105  233 1
 229  106  107 1
 230  106  234 1
 231  106  235 1
 232  107  108 1
 233  107  236 1
 234  107  237 1
 235  108  109 1
 236  108  238 1
 237  108  239 1
 238  109  110 1
 239  109  240 1
 240  109  241 1
 241  110  242 1
 242  110  243 1

#	End of record

