#	Name: ASD03430096
#	Creating user name:	WinNT
#	Creation time:	15. 06. 2019 20:40

#	Modifying user name:	WinNT
#	Modification time:	15. 06. 2019 20:40

#	Program:	/corina/corina34_cracker 3.40 0067  02.08.2006

@<TRIPOS>MOLECULE
ASD03430096
  55   60    0    0    0
SMALL
NO_CHARGES


@<TRIPOS>ATOM
   1 C1            -0.1127     1.4285     0.1561 C.ar    
   2 C2            -0.0853     0.0430     0.1150 C.ar    
   3 C3             1.1188    -0.6258     0.0487 C.ar    
   4 C4             2.3197     0.0770     0.0324 C.ar    
   5 C5             2.2883     1.4674     0.0693 C.ar    
   6 C6             1.0803     2.1414     0.1319 C.ar    
   7 O7             3.3877    -0.7704    -0.0069 O.3     
   8 C8             1.4750    -2.0861    -0.0296 C.3     
   9 C9             2.9493    -2.0668    -0.4562 C.3     
  10 C10            0.3931    -3.8315     1.0184 C.ar    
  11 C11            1.2793    -2.7924     1.2787 C.ar    
  12 C12            0.6195    -2.8296    -1.0147 C.2     
  13 N13            0.0260    -3.8276    -0.3301 N.am    
  14 O14            0.4879    -2.5806    -2.1944 O.2     
  15 C15            1.7818    -2.5980     2.5601 C.ar    
  16 C16            1.3936    -3.4532     3.5944 C.ar    
  17 C17            0.5143    -4.4843     3.3344 C.ar    
  18 C18            0.0163    -4.6762     2.0609 C.ar    
  19 C19            2.7242    -1.4904     2.8274 C.2     
  20 O20           -1.3107     2.0731     0.2141 O.3     
  21 C21           -1.2842     3.4451     0.6227 C.3     
  22 C22           -0.1582     4.1524    -0.1436 C.3     
  23 O23            1.0773     3.5024     0.1730 O.3     
  24 N24            3.9035    -1.7396     3.4304 N.am    
  25 O25            2.4353    -0.3550     2.5033 O.2     
  26 C26           -0.8953    -4.7960    -0.9298 C.3     
  27 C27            4.8372    -0.6422     3.6953 C.3     
  28 C28            5.7547    -1.0042     4.8762 C.3     
  29 C29            7.1983    -0.9927     4.3324 C.3     
  30 C30            7.1298    -0.0663     3.0929 C.3     
  31 C31            5.7551    -0.4233     2.4749 C.3     
  32 H32           -1.0101    -0.5144     0.1353 H       
  33 H33            3.2129     2.0251     0.0498 H       
  34 H34            3.0400    -2.1521    -1.5391 H       
  35 H35            3.5073    -2.8587     0.0435 H       
  36 H36            1.7800    -3.3082     4.5924 H       
  37 H37            0.2137    -5.1465     4.1329 H       
  38 H38           -0.6711    -5.4873     1.8712 H       
  39 H39           -2.2393     3.9164     0.3906 H       
  40 H40           -1.0943     3.5060     1.6943 H       
  41 H41           -0.3442     4.0847    -1.2155 H       
  42 H42           -0.1105     5.1992     0.1564 H       
  43 H43            4.1340    -2.6456     3.6890 H       
  44 H44           -1.9152    -4.4176    -0.8614 H       
  45 H45           -0.6331    -4.9465    -1.9771 H       
  46 H46           -0.8231    -5.7442    -0.3972 H       
  47 H47            4.2857     0.2714     3.9173 H       
  48 H48            5.6492    -0.2658     5.6710 H       
  49 H49            5.5053    -1.9964     5.2523 H       
  50 H50            7.8829    -0.5849     5.0761 H       
  51 H51            7.5043    -1.9975     4.0412 H       
  52 H52            7.1587     0.9815     3.3917 H       
  53 H53            7.9370    -0.2928     2.3963 H       
  54 H54            5.8281    -1.3361     1.8838 H       
  55 H55            5.3866     0.4001     1.8631 H       
@<TRIPOS>BOND
   1    1    2 ar
   2    1    6 ar
   3    1   20 1
   4    2    3 ar
   5    2   32 1
   6    3    4 ar
   7    3    8 1
   8    4    5 ar
   9    4    7 1
  10    5    6 ar
  11    5   33 1
  12    6   23 1
  13    7    9 1
  14    8    9 1
  15    8   11 1
  16    8   12 1
  17    9   34 1
  18    9   35 1
  19   10   11 ar
  20   10   13 1
  21   10   18 ar
  22   11   15 ar
  23   12   13 am
  24   12   14 2
  25   13   26 1
  26   15   16 ar
  27   15   19 1
  28   16   17 ar
  29   16   36 1
  30   17   18 ar
  31   17   37 1
  32   18   38 1
  33   19   24 am
  34   19   25 2
  35   20   21 1
  36   21   22 1
  37   21   39 1
  38   21   40 1
  39   22   23 1
  40   22   41 1
  41   22   42 1
  42   24   27 1
  43   24   43 1
  44   26   44 1
  45   26   45 1
  46   26   46 1
  47   27   28 1
  48   27   31 1
  49   27   47 1
  50   28   29 1
  51   28   48 1
  52   28   49 1
  53   29   30 1
  54   29   50 1
  55   29   51 1
  56   30   31 1
  57   30   52 1
  58   30   53 1
  59   31   54 1
  60   31   55 1

#	End of record

