#	Name: ASD05130013
#	Creating user name:	WinNT
#	Creation time:	15. 06. 2019 20:56

#	Modifying user name:	WinNT
#	Modification time:	15. 06. 2019 20:56

#	Program:	/corina/corina34_cracker 3.40 0067  02.08.2006

@<TRIPOS>MOLECULE
ASD05130013
  63   67    0    0    0
SMALL
NO_CHARGES


@<TRIPOS>ATOM
   1 N1             0.0525     1.2404     0.0397 N.am    
   2 C2             0.0603     0.0512     0.6740 C.2     
   3 O3             1.1037    -0.4020     1.1034 O.2     
   4 N4            -1.0885    -0.6356     0.8323 N.am    
   5 C5            -1.0644    -1.9194     1.3807 C.ar    
   6 C6             0.0745    -2.6908     1.2951 C.ar    
   7 C7             0.1088    -3.9717     1.8380 C.ar    
   8 C8            -0.9781    -4.4979     2.4671 C.ar    
   9 C9            -2.1588    -3.7440     2.5762 C.ar    
  10 C10           -3.2965    -4.2614     3.2197 C.ar    
  11 C11           -4.4238    -3.5039     3.3071 C.ar    
  12 C12           -4.4689    -2.2200     2.7671 C.ar    
  13 C13           -3.3863    -1.6869     2.1366 C.ar    
  14 C14           -2.2039    -2.4364     2.0326 C.ar    
  15 C15            1.2289     1.9959    -0.0464 C.ar    
  16 C16            1.1593     3.3783    -0.1928 C.ar    
  17 C17            2.3194     4.1275    -0.2777 C.ar    
  18 C18            3.5518     3.5080    -0.2177 C.ar    
  19 C19            3.6302     2.1234    -0.0711 C.ar    
  20 C20            2.4619     1.3681     0.0198 C.ar    
  21 C21            4.8126     4.3281    -0.3111 C.3     
  22 F22           -0.0439     3.9899    -0.2526 F       
  23 N23            6.6690     0.3575     1.3323 N.am    
  24 C24            5.4674     0.9643     1.2728 C.2     
  25 C25            4.9521     1.4572    -0.0065 C.2     
  26 C26            5.6992     1.2981    -1.1417 C.2     
  27 C27            6.9582     0.6581    -1.0533 C.ar    
  28 C28            7.7561     0.4744    -2.1893 C.ar    
  29 N29            8.9240    -0.1221    -2.0897 N.ar    
  30 C30            9.3936    -0.5701    -0.9302 C.ar    
  31 C31            8.6677    -0.4297     0.2441 C.ar    
  32 C32            7.4265     0.1940     0.1955 C.ar    
  33 O33            4.8065     1.1023     2.2868 O.2     
  34 N34           10.6337    -1.1908    -0.8929 N.pl3   
  35 C35           11.1651    -1.6901     0.3777 C.3     
  36 C36            7.1760    -0.1258     2.6190 C.3     
  37 C37            6.7198    -1.5698     2.8371 C.3     
  38 H38           -0.7668     1.5712    -0.3606 H       
  39 H39           -1.9320    -0.2381     0.5651 H       
  40 H40            0.9502    -2.2968     0.8008 H       
  41 H41            1.0122    -4.5581     1.7586 H       
  42 H42           -0.9328    -5.4941     2.8817 H       
  43 H43           -3.2763    -5.2551     3.6422 H       
  44 H44           -5.2965    -3.9038     3.8020 H       
  45 H45           -5.3759    -1.6396     2.8496 H       
  46 H46           -3.4356    -0.6907     1.7224 H       
  47 H47            2.2608     5.1999    -0.3916 H       
  48 H48            2.5181     0.2961     0.1378 H       
  49 H49            5.1215     4.6347     0.6883 H       
  50 H50            5.6016     3.7308    -0.7680 H       
  51 H51            4.6266     5.2121    -0.9210 H       
  52 H52            5.3328     1.6559    -2.0925 H       
  53 H53            7.4109     0.8237    -3.1512 H       
  54 H54            9.0604    -0.7990     1.1799 H       
  55 H55           11.1490    -1.2942    -1.7082 H       
  56 H56           12.1424    -2.1426     0.2101 H       
  57 H57           11.2635    -0.8628     1.0806 H       
  58 H58           10.4847    -2.4363     0.7879 H       
  59 H59            8.2653    -0.0850     2.6188 H       
  60 H60            6.7891     0.5026     3.4212 H       
  61 H61            5.6305    -1.6106     2.8373 H       
  62 H62            7.1067    -2.1982     2.0349 H       
  63 H63            7.0970    -1.9294     3.7944 H       
@<TRIPOS>BOND
   1    1    2 am
   2    1   15 1
   3    1   38 1
   4    2    3 2
   5    2    4 am
   6    4    5 1
   7    4   39 1
   8    5    6 ar
   9    5   14 ar
  10    6    7 ar
  11    6   40 1
  12    7    8 ar
  13    7   41 1
  14    8    9 ar
  15    8   42 1
  16    9   10 ar
  17    9   14 ar
  18   10   11 ar
  19   10   43 1
  20   11   12 ar
  21   11   44 1
  22   12   13 ar
  23   12   45 1
  24   13   14 ar
  25   13   46 1
  26   15   16 ar
  27   15   20 ar
  28   16   17 ar
  29   16   22 1
  30   17   18 ar
  31   17   47 1
  32   18   19 ar
  33   18   21 1
  34   19   20 ar
  35   19   25 1
  36   20   48 1
  37   21   49 1
  38   21   50 1
  39   21   51 1
  40   23   24 am
  41   23   32 1
  42   23   36 1
  43   24   25 1
  44   24   33 2
  45   25   26 2
  46   26   27 1
  47   26   52 1
  48   27   28 ar
  49   27   32 ar
  50   28   29 ar
  51   28   53 1
  52   29   30 ar
  53   30   31 ar
  54   30   34 1
  55   31   32 ar
  56   31   54 1
  57   34   35 1
  58   34   55 1
  59   35   56 1
  60   35   57 1
  61   35   58 1
  62   36   37 1
  63   36   59 1
  64   36   60 1
  65   37   61 1
  66   37   62 1
  67   37   63 1

#	End of record

