#	Name: ASD01914912
#	Creating user name:	WinNT
#	Creation time:	15. 06. 2019 20:04

#	Modifying user name:	WinNT
#	Modification time:	15. 06. 2019 20:04

#	Program:	/corina/corina34_cracker 3.40 0067  02.08.2006

@<TRIPOS>MOLECULE
ASD01914912
  54   58    0    0    0
SMALL
NO_CHARGES


@<TRIPOS>ATOM
   1 C1            -0.0032     1.3311    -0.0214 C.2     
   2 N2             0.0139     0.0590     0.3179 N.2     
   3 C3             1.3082     1.7200    -0.3419 C.2     
   4 C4             2.1160     0.6324    -0.1825 C.2     
   5 N5             1.3318    -0.4058     0.2258 N.pl3   
   6 C6            -1.2036     2.2033    -0.0640 C.ar    
   7 C7            -2.4535     1.6894     0.2744 C.ar    
   8 C8            -3.5664     2.5048     0.2330 C.ar    
   9 C9            -3.4423     3.8298    -0.1441 C.ar    
  10 C10           -2.2038     4.3451    -0.4811 C.ar    
  11 C11           -1.0834     3.5402    -0.4371 C.ar    
  12 C12            3.5775     0.5874    -0.4111 C.ar    
  13 C13            4.1837     1.5199    -1.2531 C.ar    
  14 C14            5.5467     1.4726    -1.4622 C.ar    
  15 C15            6.3119     0.5032    -0.8388 C.ar    
  16 C16            5.7165    -0.4246    -0.0030 C.ar    
  17 C17            4.3553    -0.3841     0.2191 C.ar    
  18 C18            1.7877    -1.7673     0.5173 C.3     
  19 C19            2.0657    -1.8989     1.9926 C.2     
  20 N20            2.4991    -3.0722     2.4946 N.am    
  21 C21            2.7538    -4.3038     1.7408 C.3     
  22 O22            1.8994    -0.9490     2.7281 O.2     
  23 C23            2.8122    -3.3592     3.8980 C.3     
  24 C24            3.2577    -4.7972     3.9837 C.ar    
  25 C25            3.2235    -5.3512     2.7186 C.ar    
  26 C26            3.6622    -5.5621     5.0628 C.ar    
  27 C27            4.0305    -6.8861     4.8766 C.ar    
  28 C28            3.9918    -7.4412     3.6060 C.ar    
  29 C29            3.5915    -6.6727     2.5308 C.ar    
  30 O30            4.4289    -7.6378     5.9364 O.3     
  31 C31            4.7937    -8.9934     5.6697 C.3     
  32 H32            1.6209     2.7042    -0.6584 H       
  33 H33           -2.5516     0.6548     0.5683 H       
  34 H34           -4.5358     2.1074     0.4951 H       
  35 H35           -4.3158     4.4642    -0.1759 H       
  36 H36           -2.1125     5.3804    -0.7748 H       
  37 H37           -0.1167     3.9436    -0.7002 H       
  38 H38            3.5874     2.2769    -1.7405 H       
  39 H39            6.0172     2.1938    -2.1141 H       
  40 H40            7.3784     0.4703    -1.0056 H       
  41 H41            6.3191    -1.1795     0.4803 H       
  42 H42            3.8917    -1.1087     0.8720 H       
  43 H43            1.0144    -2.4790     0.2284 H       
  44 H44            2.6991    -1.9732    -0.0440 H       
  45 H45            1.8361    -4.6364     1.2556 H       
  46 H46            3.5251    -4.1255     0.9915 H       
  47 H47            3.6130    -2.7033     4.2395 H       
  48 H48            1.9242    -3.2103     4.5125 H       
  49 H49            3.6916    -5.1278     6.0512 H       
  50 H50            4.2779    -8.4720     3.4572 H       
  51 H51            3.5609    -7.1049     1.5416 H       
  52 H52            3.9421    -9.5210     5.2400 H       
  53 H53            5.6263    -9.0141     4.9665 H       
  54 H54            5.0908    -9.4793     6.5990 H       
@<TRIPOS>BOND
   1    1    2 2
   2    1    3 1
   3    1    6 1
   4    2    5 1
   5    3    4 2
   6    3   32 1
   7    4    5 1
   8    4   12 1
   9    5   18 1
  10    6    7 ar
  11    6   11 ar
  12    7    8 ar
  13    7   33 1
  14    8    9 ar
  15    8   34 1
  16    9   10 ar
  17    9   35 1
  18   10   11 ar
  19   10   36 1
  20   11   37 1
  21   12   13 ar
  22   12   17 ar
  23   13   14 ar
  24   13   38 1
  25   14   15 ar
  26   14   39 1
  27   15   16 ar
  28   15   40 1
  29   16   17 ar
  30   16   41 1
  31   17   42 1
  32   18   19 1
  33   18   43 1
  34   18   44 1
  35   19   20 am
  36   19   22 2
  37   20   23 1
  38   20   21 1
  39   21   25 1
  40   21   45 1
  41   21   46 1
  42   23   24 1
  43   23   47 1
  44   23   48 1
  45   24   25 ar
  46   24   26 ar
  47   25   29 ar
  48   26   27 ar
  49   26   49 1
  50   27   28 ar
  51   27   30 1
  52   28   29 ar
  53   28   50 1
  54   29   51 1
  55   30   31 1
  56   31   52 1
  57   31   53 1
  58   31   54 1

#	End of record

