#	Name: ASD01190040
#	Creating user name:	WinNT
#	Creation time:	15. 06. 2019 19:07

#	Modifying user name:	WinNT
#	Modification time:	15. 06. 2019 19:07

#	Program:	/corina/corina34_cracker 3.40 0067  02.08.2006

@<TRIPOS>MOLECULE
ASD01190040
  59   62    0    0    0
SMALL
NO_CHARGES


@<TRIPOS>ATOM
   1 N1            -0.0257     1.4602     0.1092 N.am    
   2 N2            -0.0209     0.1066     0.4613 N.2     
   3 C3             1.2020    -0.3188     0.5887 C.2     
   4 C4             2.0986     0.8013     0.3096 C.ar    
   5 C5             3.4888     0.9498     0.2904 C.ar    
   6 C6             4.0371     2.1618    -0.0170 C.ar    
   7 C7             3.2264     3.2506    -0.3108 C.ar    
   8 C8             1.8549     3.1278    -0.2980 C.ar    
   9 C9             1.2747     1.9023     0.0119 C.ar    
  10 C10           -1.1253     2.2093    -0.1059 C.2     
  11 O11           -1.0128     3.3808    -0.4090 O.2     
  12 N12           -2.3497     1.6591     0.0151 N.am    
  13 C13           -3.5450     2.4733    -0.2187 C.3     
  14 C14           -3.5223     3.0133    -1.6501 C.3     
  15 C15           -4.7948     1.6140    -0.0176 C.3     
  16 C16           -3.5662     3.6430     0.7674 C.3     
  17 C17            5.5357     2.3197    -0.0371 C.3     
  18 C18            6.1135     1.5517    -1.2275 C.3     
  19 O19            5.8671     3.7045    -0.1575 O.3     
  20 F20            5.5751     2.0584    -2.4152 F       
  21 F21            7.5047     1.6983    -1.2462 F       
  22 F22            5.7890     0.1959    -1.1096 F       
  23 N23            7.3033     0.5600     2.6713 N.pl3   
  24 C24            7.0115     0.7803     1.3528 C.2     
  25 C25            6.1156     1.7738     1.2422 C.2     
  26 C26            5.8085     2.2267     2.6011 C.ar    
  27 C27            4.9688     3.2088     3.1303 C.ar    
  28 C28            4.9047     3.3893     4.4831 C.ar    
  29 C29            5.6680     2.6040     5.3363 C.ar    
  30 C30            6.5033     1.6298     4.8356 C.ar    
  31 C31            6.5839     1.4283     3.4614 C.ar    
  32 C32            8.2373    -0.4532     3.1687 C.3     
  33 C33            7.4766    -1.7023     3.5324 C.2     
  34 C34            7.8149    -2.8524     3.0043 C.2     
  35 H35            1.5017    -1.3219     0.8541 H       
  36 H36            4.1267     0.1086     0.5183 H       
  37 H37            3.6759     4.2027    -0.5513 H       
  38 H38            1.2322     3.9798    -0.5274 H       
  39 H39           -2.4395     0.7241     0.2570 H       
  40 H40           -3.5072     2.1800    -2.3525 H       
  41 H41           -4.4116     3.6191    -1.8240 H       
  42 H42           -2.6319     3.6255    -1.7933 H       
  43 H43           -4.8110     1.2293     1.0022 H       
  44 H44           -5.6841     2.2198    -0.1915 H       
  45 H45           -4.7797     0.7807    -0.7200 H       
  46 H46           -2.6758     4.2552     0.6241 H       
  47 H47           -4.4555     4.2488     0.5934 H       
  48 H48           -3.5824     3.2583     1.7871 H       
  49 H49            5.5320     4.2534     0.5647 H       
  50 H50            7.4390     0.2359     0.5238 H       
  51 H51            4.3724     3.8237     2.4727 H       
  52 H52            4.2553     4.1493     4.8919 H       
  53 H53            5.6065     2.7586     6.4034 H       
  54 H54            7.0933     1.0242     5.5075 H       
  55 H55            8.9679    -0.6855     2.3938 H       
  56 H56            8.7518    -0.0714     4.0505 H       
  57 H57            6.6525    -1.6492     4.2284 H       
  58 H58            8.6390    -2.9054     2.3083 H       
  59 H59            7.2697    -3.7475     3.2650 H       
@<TRIPOS>BOND
   1    1    2 1
   2    1    9 1
   3    1   10 am
   4    2    3 2
   5    3    4 1
   6    3   35 1
   7    4    5 ar
   8    4    9 ar
   9    5    6 ar
  10    5   36 1
  11    6    7 ar
  12    6   17 1
  13    7    8 ar
  14    7   37 1
  15    8    9 ar
  16    8   38 1
  17   10   11 2
  18   10   12 am
  19   12   13 1
  20   12   39 1
  21   13   14 1
  22   13   15 1
  23   13   16 1
  24   14   40 1
  25   14   41 1
  26   14   42 1
  27   15   43 1
  28   15   44 1
  29   15   45 1
  30   16   46 1
  31   16   47 1
  32   16   48 1
  33   17   18 1
  34   17   19 1
  35   17   25 1
  36   18   20 1
  37   18   21 1
  38   18   22 1
  39   19   49 1
  40   23   24 1
  41   23   31 1
  42   23   32 1
  43   24   25 2
  44   24   50 1
  45   25   26 1
  46   26   27 ar
  47   26   31 ar
  48   27   28 ar
  49   27   51 1
  50   28   29 ar
  51   28   52 1
  52   29   30 ar
  53   29   53 1
  54   30   31 ar
  55   30   54 1
  56   32   33 1
  57   32   55 1
  58   32   56 1
  59   33   34 2
  60   33   57 1
  61   34   58 1
  62   34   59 1

#	End of record

