#	Name: ASD01880545
#	Creating user name:	WinNT
#	Creation time:	15. 06. 2019 19:40

#	Modifying user name:	WinNT
#	Modification time:	15. 06. 2019 19:40

#	Program:	/corina/corina34_cracker 3.40 0067  02.08.2006

@<TRIPOS>MOLECULE
ASD01880545
  38   40    0    0    0
SMALL
NO_CHARGES


@<TRIPOS>ATOM
   1 N1            -0.0158     1.3135     0.0093 N.ar    
   2 C2             0.0021    -0.0041     0.0020 C.ar    
   3 N3             1.1318    -0.6828    -0.0120 N.ar    
   4 C4             2.2992    -0.0570    -0.0198 C.ar    
   5 C5             2.3208     1.3305    -0.0130 C.ar    
   6 C6             1.1120     2.0080     0.0022 C.ar    
   7 C7             3.6269     2.0822    -0.0209 C.3     
   8 O8             4.0276     2.3266    -1.3706 O.3     
   9 C9             5.1921     2.9986    -1.5555 C.ar    
  10 C10            5.6409     3.2700    -2.8444 C.ar    
  11 C11            6.8187     3.9503    -3.0300 C.ar    
  12 C12            7.5726     4.3734    -1.9303 C.ar    
  13 C13            7.1171     4.0986    -0.6379 C.ar    
  14 C14            5.9323     3.4201    -0.4574 C.ar    
  15 C15            7.5712     4.3961    -4.2589 C.3     
  16 N16            8.7739     5.0839    -3.7758 N.am    
  17 C17            8.7707     5.0685    -2.4318 C.2     
  18 O18            9.6338     5.5590    -1.7298 O.2     
  19 Cl19           3.7817    -0.9601    -0.0376 Cl      
  20 I20            1.0691     4.1025     0.0125 I       
  21 C21           10.5289     7.7783    -5.7823 C.3     
  22 C22            9.4486     7.1478    -4.9012 C.3     
  23 C23            9.8083     5.6876    -4.6195 C.3     
  24 H24           -0.9342    -0.5423     0.0081 H       
  25 H25            3.5025     3.0322     0.4989 H       
  26 H26            4.3903     1.4895     0.4831 H       
  27 H27            5.0635     2.9457    -3.6975 H       
  28 H28            7.6917     4.4205     0.2179 H       
  29 H29            5.5806     3.2083     0.5416 H       
  30 H30            7.8505     3.5317    -4.8614 H       
  31 H31            6.9585     5.0803    -4.8458 H       
  32 H32           10.2727     8.8186    -5.9829 H       
  33 H33           11.4890     7.7333    -5.2683 H       
  34 H34           10.5946     7.2323    -6.7234 H       
  35 H35            9.3829     7.6939    -3.9601 H       
  36 H36            8.4885     7.1929    -5.4152 H       
  37 H37           10.7685     5.6426    -4.1055 H       
  38 H38            9.8740     5.1416    -5.5606 H       
@<TRIPOS>BOND
   1    1    2 ar
   2    1    6 ar
   3    2    3 ar
   4    2   24 1
   5    3    4 ar
   6    4    5 ar
   7    4   19 1
   8    5    6 ar
   9    5    7 1
  10    6   20 1
  11    7    8 1
  12    7   25 1
  13    7   26 1
  14    8    9 1
  15    9   10 ar
  16    9   14 ar
  17   10   11 ar
  18   10   27 1
  19   11   12 ar
  20   11   15 1
  21   12   13 ar
  22   12   17 1
  23   13   14 ar
  24   13   28 1
  25   14   29 1
  26   15   16 1
  27   15   30 1
  28   15   31 1
  29   16   17 am
  30   16   23 1
  31   17   18 2
  32   21   22 1
  33   21   32 1
  34   21   33 1
  35   21   34 1
  36   22   23 1
  37   22   35 1
  38   22   36 1
  39   23   37 1
  40   23   38 1

#	End of record

