#	Name: ASD01900858
#	Creating user name:	WinNT
#	Creation time:	15. 06. 2019 19:52

#	Modifying user name:	WinNT
#	Modification time:	15. 06. 2019 19:52

#	Program:	/corina/corina34_cracker 3.40 0067  02.08.2006

@<TRIPOS>MOLECULE
ASD01900858
  58   62    0    0    0
SMALL
NO_CHARGES


@<TRIPOS>ATOM
   1 C1             0.4473     0.9342     0.1708 C.ar    
   2 C2             0.5561    -0.4377     0.0856 C.ar    
   3 C3             1.7733    -1.0295    -0.2209 C.ar    
   4 C4             2.8971    -0.2529    -0.4371 C.ar    
   5 C5             2.8052     1.1253    -0.3489 C.ar    
   6 C6             1.5695     1.7287    -0.0536 C.ar    
   7 N7             3.9113     1.9462    -0.5388 N.pl3   
   8 C8             3.7039     3.3055    -1.0509 C.3     
   9 N9             2.5609     3.9300    -0.3838 N.am    
  10 C10            1.5036     3.1982     0.0200 C.2     
  11 C11            2.5658     5.3126    -0.1611 C.ar    
  12 C12            3.3141     5.8459     0.8800 C.ar    
  13 C13            3.3188     7.2093     1.0986 C.ar    
  14 C14            2.5758     8.0462     0.2789 C.ar    
  15 C15            1.8276     7.5141    -0.7611 C.ar    
  16 C16            1.8268     6.1515    -0.9848 C.ar    
  17 O17            2.5805     9.3886     0.4951 O.3     
  18 O18            0.5033     3.7468     0.4417 O.2     
  19 Cl19           1.8863    -2.7582    -0.3333 Cl      
  20 C20            1.8828    10.2006    -0.4514 C.3     
  21 C21            4.9620     4.1400    -0.7931 C.3     
  22 C22            3.4438     3.2441    -2.5587 C.3     
  23 C23            3.2964     4.6666    -3.1036 C.3     
  24 N24            4.5231     5.4263    -2.8311 N.3     
  25 C25            4.7707     5.5371    -1.3880 C.3     
  26 C26            4.4711     6.7530    -3.4597 C.3     
  27 C27            5.7128     7.5280    -3.1006 C.ar    
  28 C28            6.8202     7.4806    -3.9270 C.ar    
  29 C29            7.9594     8.1911    -3.5984 C.ar    
  30 C30            7.9920     8.9495    -2.4431 C.ar    
  31 C31            6.8843     8.9973    -1.6159 C.ar    
  32 C32            5.7422     8.2903    -1.9484 C.ar    
  33 Cl33           6.9247     9.9491    -0.1646 Cl      
  34 H34           -0.5030     1.3902     0.4058 H       
  35 H35           -0.3121    -1.0561     0.2590 H       
  36 H36            3.8420    -0.7196    -0.6732 H       
  37 H37            4.8042     1.6260    -0.3360 H       
  38 H38            3.8920     5.1945     1.5187 H       
  39 H39            3.9007     7.6243     1.9083 H       
  40 H40            1.2488     8.1662    -1.3985 H       
  41 H41            1.2481     5.7379    -1.7975 H       
  42 H42            2.3694    10.1248    -1.4238 H       
  43 H43            0.8513     9.8579    -0.5337 H       
  44 H44            1.8954    11.2386    -0.1188 H       
  45 H45            5.1312     4.2215     0.2806 H       
  46 H46            5.8203     3.6590    -1.2622 H       
  47 H47            4.2805     2.7500    -3.0526 H       
  48 H48            2.5272     2.6852    -2.7475 H       
  49 H49            3.1248     4.6275    -4.1793 H       
  50 H50            2.4513     5.1554    -2.6188 H       
  51 H51            3.9197     6.0220    -0.9097 H       
  52 H52            5.6692     6.1303    -1.2181 H       
  53 H53            4.4137     6.6402    -4.5423 H       
  54 H54            3.5920     7.2898    -3.1032 H       
  55 H55            6.7953     6.8880    -4.8296 H       
  56 H56            8.8242     8.1535    -4.2441 H       
  57 H57            8.8823     9.5044    -2.1862 H       
  58 H58            4.8755     8.3307    -1.3052 H       
@<TRIPOS>BOND
   1    1    2 ar
   2    1    6 ar
   3    1   34 1
   4    2    3 ar
   5    2   35 1
   6    3    4 ar
   7    3   19 1
   8    4    5 ar
   9    4   36 1
  10    5    7 1
  11    5    6 ar
  12    6   10 1
  13    7    8 1
  14    7   37 1
  15    8    9 1
  16    8   22 1
  17    8   21 1
  18    9   10 am
  19    9   11 1
  20   10   18 2
  21   11   12 ar
  22   11   16 ar
  23   12   13 ar
  24   12   38 1
  25   13   14 ar
  26   13   39 1
  27   14   15 ar
  28   14   17 1
  29   15   16 ar
  30   15   40 1
  31   16   41 1
  32   17   20 1
  33   20   42 1
  34   20   43 1
  35   20   44 1
  36   21   25 1
  37   21   45 1
  38   21   46 1
  39   22   23 1
  40   22   47 1
  41   22   48 1
  42   23   24 1
  43   23   49 1
  44   23   50 1
  45   24   25 1
  46   24   26 1
  47   25   51 1
  48   25   52 1
  49   26   27 1
  50   26   53 1
  51   26   54 1
  52   27   28 ar
  53   27   32 ar
  54   28   29 ar
  55   28   55 1
  56   29   30 ar
  57   29   56 1
  58   30   31 ar
  59   30   57 1
  60   31   32 ar
  61   31   33 1
  62   32   58 1

#	End of record

