#	Name: ASD06130012
#	Creating user name:	WinNT
#	Creation time:	15. 06. 2019 21:05

#	Modifying user name:	WinNT
#	Modification time:	15. 06. 2019 21:05

#	Program:	/corina/corina34_cracker 3.40 0067  02.08.2006

@<TRIPOS>MOLECULE
ASD06130012
  71   75    0    0    0
SMALL
NO_CHARGES


@<TRIPOS>ATOM
   1 C1            -0.9208    -6.0661     0.6476 C.ar    
   2 C2            -0.2295    -5.4354    -0.3698 C.ar    
   3 C3             0.9066    -4.7021    -0.0825 C.ar    
   4 C4             1.3510    -4.5990     1.2224 C.ar    
   5 C5             0.6591    -5.2289     2.2400 C.ar    
   6 C6            -0.4761    -5.9634     1.9525 C.ar    
   7 C7             1.6608    -4.0154    -1.1918 C.3     
   8 N8             1.2307    -2.6137    -1.2817 N.3     
   9 C9             2.3060    -1.7662    -1.8142 C.3     
  10 C10            3.4660    -1.7277    -0.8172 C.3     
  11 C11            0.0115    -2.4881    -2.0916 C.3     
  12 C12           -1.1145    -3.2341    -1.4234 C.2     
  13 N13           -1.9742    -4.0866    -2.0115 N.pl3   
  14 C14           -1.9922    -4.4663    -3.4263 C.3     
  15 C15           -0.3575    -1.0327    -2.2214 C.2     
  16 C16           -0.5101    -0.2402    -1.0637 C.2     
  17 O17           -0.3399    -0.7486     0.0310 O.2     
  18 N18           -1.4432    -3.1833    -0.1556 N.2     
  19 N19           -2.4557    -3.9595     0.0245 N.2     
  20 N20           -2.7791    -4.5069    -1.0949 N.2     
  21 C21            4.5691    -0.8583    -1.3634 C.ar    
  22 C22            4.5862     0.4949    -1.0819 C.ar    
  23 C23            5.5980     1.2924    -1.5829 C.ar    
  24 C24            6.5931     0.7366    -2.3651 C.ar    
  25 C25            6.5765    -0.6168    -2.6459 C.ar    
  26 C26            5.5670    -1.4151    -2.1413 C.ar    
  27 C27           -0.5363    -0.4883    -3.4503 C.2     
  28 C28           -0.8944     0.9284    -3.5429 C.ar    
  29 C29           -1.0404     1.6743    -2.3579 C.ar    
  30 N30           -0.8381     1.0614    -1.1379 N.am    
  31 C31           -1.0908     1.5439    -4.7832 C.ar    
  32 C32           -1.4273     2.8820    -4.8341 C.ar    
  33 C33           -1.5708     3.6161    -3.6594 C.ar    
  34 C34           -1.3798     3.0209    -2.4318 C.ar    
  35 O35           -1.6192     3.4859    -6.0369 O.3     
  36 C36           -1.9654     4.8722    -6.0189 C.3     
  37 C37           -1.0144    -5.6201    -3.6572 C.3     
  38 O38           -1.0080    -5.9690    -5.0430 O.3     
  39 C39           -0.1225    -7.0425    -5.3680 C.3     
  40 H40           -1.8109    -6.6353     0.4237 H       
  41 H41           -0.5767    -5.5160    -1.3893 H       
  42 H42            2.2389    -4.0267     1.4469 H       
  43 H43            1.0065    -5.1487     3.2595 H       
  44 H44           -1.0168    -6.4552     2.7475 H       
  45 H45            2.7299    -4.0547    -0.9828 H       
  46 H46            1.4564    -4.5195    -2.1364 H       
  47 H47            2.6552    -2.1751    -2.7623 H       
  48 H48            1.9283    -0.7559    -1.9713 H       
  49 H49            3.1168    -1.3188     0.1309 H       
  50 H50            3.8437    -2.7381    -0.6601 H       
  51 H51            0.1883    -2.9078    -3.0819 H       
  52 H52           -2.9978    -4.7809    -3.7053 H       
  53 H53           -1.6966    -3.6121    -4.0355 H       
  54 H54            3.8088     0.9292    -0.4708 H       
  55 H55            5.6110     2.3499    -1.3636 H       
  56 H56            7.3832     1.3598    -2.7571 H       
  57 H57            7.3537    -1.0510    -3.2573 H       
  58 H58            5.5541    -2.4725    -2.3606 H       
  59 H59           -0.4168    -1.0865    -4.3415 H       
  60 H60           -0.9390     1.5761    -0.3219 H       
  61 H61           -0.9797     0.9764    -5.6953 H       
  62 H62           -1.8343     4.6622    -3.7113 H       
  63 H63           -1.4937     3.5998    -1.5272 H       
  64 H64           -1.1726     5.4384    -5.5300 H       
  65 H65           -2.0893     5.2291    -7.0414 H       
  66 H66           -2.8984     5.0066    -5.4716 H       
  67 H67           -0.0129    -5.3137    -3.3551 H       
  68 H68           -1.3241    -6.4825    -3.0669 H       
  69 H69            0.8974    -6.7655    -5.1014 H       
  70 H70           -0.4137    -7.9344    -4.8131 H       
  71 H71           -0.1759    -7.2464    -6.4375 H       
@<TRIPOS>BOND
   1    1    2 ar
   2    1    6 ar
   3    1   40 1
   4    2    3 ar
   5    2   41 1
   6    3    4 ar
   7    3    7 1
   8    4    5 ar
   9    4   42 1
  10    5    6 ar
  11    5   43 1
  12    6   44 1
  13    7    8 1
  14    7   45 1
  15    7   46 1
  16    8    9 1
  17    8   11 1
  18    9   10 1
  19    9   47 1
  20    9   48 1
  21   10   21 1
  22   10   49 1
  23   10   50 1
  24   11   12 1
  25   11   15 1
  26   11   51 1
  27   12   13 1
  28   12   18 2
  29   13   14 1
  30   13   20 1
  31   14   37 1
  32   14   52 1
  33   14   53 1
  34   15   16 1
  35   15   27 2
  36   16   17 2
  37   16   30 am
  38   18   19 1
  39   19   20 2
  40   21   22 ar
  41   21   26 ar
  42   22   23 ar
  43   22   54 1
  44   23   24 ar
  45   23   55 1
  46   24   25 ar
  47   24   56 1
  48   25   26 ar
  49   25   57 1
  50   26   58 1
  51   27   28 1
  52   27   59 1
  53   28   29 ar
  54   28   31 ar
  55   29   30 1
  56   29   34 ar
  57   30   60 1
  58   31   32 ar
  59   31   61 1
  60   32   33 ar
  61   32   35 1
  62   33   34 ar
  63   33   62 1
  64   34   63 1
  65   35   36 1
  66   36   64 1
  67   36   65 1
  68   36   66 1
  69   37   38 1
  70   37   67 1
  71   37   68 1
  72   38   39 1
  73   39   69 1
  74   39   70 1
  75   39   71 1

#	End of record

