#	Name: ASD01882867
#	Creating user name:	WinNT
#	Creation time:	15. 06. 2019 19:45

#	Modifying user name:	WinNT
#	Modification time:	15. 06. 2019 19:45

#	Program:	/corina/corina34_cracker 3.40 0067  02.08.2006

@<TRIPOS>MOLECULE
ASD01882867
  52   55    0    0    0
SMALL
NO_CHARGES


@<TRIPOS>ATOM
   1 C1            -0.8320     1.0772     0.5015 C.2     
   2 N2            -0.9712    -0.2409     0.5487 N.2     
   3 C3             0.0870    -1.0502     0.6626 C.2     
   4 C4             1.3895    -0.4948     0.7350 C.2     
   5 C5             1.5184     0.8477     0.6859 C.2     
   6 N6             0.4028     1.6286     0.5690 N.pl3   
   7 O7            -1.8087     2.0029     0.3830 O.3     
   8 C8             0.2823     3.0946     0.4961 C.3     
   9 C9            -1.2319     3.3364     0.3698 C.3     
  10 O10           -0.0676    -2.2611     0.7044 O.2     
  11 C11           -1.5490     4.0439    -0.9492 C.3     
  12 O12           -2.9551     4.2835    -1.0351 O.3     
  13 C13           -3.4071     4.9091    -2.1537 C.ar    
  14 C14           -4.7608     5.1733    -2.3031 C.ar    
  15 C15           -5.2178     5.8092    -3.4411 C.ar    
  16 C16           -4.3273     6.1824    -4.4308 C.ar    
  17 C17           -2.9777     5.9198    -4.2845 C.ar    
  18 C18           -2.5149     5.2896    -3.1456 C.ar    
  19 C19           -2.0100     6.3270    -5.3657 C.3     
  20 C20           -6.6883     6.0961    -3.6043 C.3     
  21 C21           -4.8286     6.8760    -5.6712 C.3     
  22 C22           -5.6666     5.8991    -6.4985 C.3     
  23 C23           -6.1755     6.6033    -7.7578 C.3     
  24 C24           -7.0371     7.8029    -7.3585 C.3     
  25 C25           -6.1991     8.7798    -6.5312 C.3     
  26 C26           -5.6902     8.0756    -5.2719 C.3     
  27 H27            2.2575    -1.1307     0.8275 H       
  28 H28            2.4967     1.3020     0.7391 H       
  29 H29            0.6706     3.5558     1.4042 H       
  30 H30            0.8032     3.4779    -0.3814 H       
  31 H31           -1.5995     3.9193     1.2143 H       
  32 H32           -1.0154     4.9935    -0.9896 H       
  33 H33           -1.2359     3.4155    -1.7830 H       
  34 H34           -5.4569     4.8817    -1.5305 H       
  35 H35           -1.4601     5.0891    -3.0297 H       
  36 H36           -1.7244     7.3693    -5.2239 H       
  37 H37           -1.1221     5.6968    -5.3147 H       
  38 H38           -2.4836     6.2094    -6.3403 H       
  39 H39           -6.9364     7.0249    -3.0906 H       
  40 H40           -6.9242     6.1927    -4.6640 H       
  41 H41           -7.2677     5.2781    -3.1761 H       
  42 H42           -3.9803     7.2190    -6.2636 H       
  43 H43           -5.0528     5.0445    -6.7830 H       
  44 H44           -6.5148     5.5561    -5.9061 H       
  45 H45           -5.3273     6.9463    -8.3502 H       
  46 H46           -6.7725     5.9074    -8.3472 H       
  47 H47           -7.3996     8.3046    -8.2556 H       
  48 H48           -7.8853     7.4599    -6.7661 H       
  49 H49           -5.3508     9.1229    -7.1236 H       
  50 H50           -6.8129     9.6345    -6.2467 H       
  51 H51           -6.5384     7.7326    -4.6795 H       
  52 H52           -5.0931     8.7716    -4.6825 H       
@<TRIPOS>BOND
   1    1    2 2
   2    1    6 1
   3    1    7 1
   4    2    3 1
   5    3    4 1
   6    3   10 2
   7    4    5 2
   8    4   27 1
   9    5    6 1
  10    5   28 1
  11    6    8 1
  12    7    9 1
  13    8    9 1
  14    8   29 1
  15    8   30 1
  16    9   11 1
  17    9   31 1
  18   11   12 1
  19   11   32 1
  20   11   33 1
  21   12   13 1
  22   13   14 ar
  23   13   18 ar
  24   14   15 ar
  25   14   34 1
  26   15   16 ar
  27   15   20 1
  28   16   17 ar
  29   16   21 1
  30   17   18 ar
  31   17   19 1
  32   18   35 1
  33   19   36 1
  34   19   37 1
  35   19   38 1
  36   20   39 1
  37   20   40 1
  38   20   41 1
  39   21   22 1
  40   21   26 1
  41   21   42 1
  42   22   23 1
  43   22   43 1
  44   22   44 1
  45   23   24 1
  46   23   45 1
  47   23   46 1
  48   24   25 1
  49   24   47 1
  50   24   48 1
  51   25   26 1
  52   25   49 1
  53   25   50 1
  54   26   51 1
  55   26   52 1

#	End of record

