#	Name: ASD01881970
#	Creating user name:	WinNT
#	Creation time:	15. 06. 2019 19:43

#	Modifying user name:	WinNT
#	Modification time:	15. 06. 2019 19:43

#	Program:	/corina/corina34_cracker 3.40 0067  02.08.2006

@<TRIPOS>MOLECULE
ASD01881970
  52   55    0    0    0
SMALL
NO_CHARGES


@<TRIPOS>ATOM
   1 N1            -0.0154     1.2839     0.0091 N.pl3   
   2 N2             0.0021    -0.0041     0.0020 N.2     
   3 N3             1.2033    -0.4649    -0.0119 N.2     
   4 C4             2.0741     0.5645    -0.0147 C.ar    
   5 C5             1.2843     1.7298    -0.0009 C.ar    
   6 C6             3.4670     0.6759    -0.0271 C.ar    
   7 C7             4.0484     1.9285    -0.0255 C.ar    
   8 C8             3.2560     3.0739    -0.0118 C.ar    
   9 C9             1.8924     2.9784    -0.0004 C.ar    
  10 O10            5.4033     2.0444    -0.0370 O.3     
  11 C11            5.9411     3.3683    -0.0346 C.3     
  12 C12            7.4694     3.2979    -0.0487 C.3     
  13 C13            8.0453     4.7154    -0.0462 C.3     
  14 N14            9.5127     4.6478    -0.0597 N.3     
  15 C15           10.0984     5.9736    -0.2958 C.3     
  16 C16           11.6156     5.8426    -0.4483 C.3     
  17 C17           12.2002     5.2252     0.8252 C.3     
  18 C18           11.5386     3.8671     1.0747 C.3     
  19 C19           10.0237     4.0553     1.1830 C.3     
  20 C20           13.7088     5.0356     0.6554 C.3     
  21 F21           14.3113     6.2761     0.4203 F       
  22 F22           14.2418     4.4714     1.8194 F       
  23 F23           13.9529     4.1857    -0.4287 F       
  24 C24           -1.2133     2.1272     0.0196 C.3     
  25 C25           -1.6228     2.4135     1.4657 C.3     
  26 C26           -2.7884     3.3784     1.6921 C.3     
  27 C27           -2.9777     1.8797     1.9352 C.3     
  28 Br28           4.5472    -0.8761    -0.0451 Br      
  29 H29            3.7236     4.0474    -0.0103 H       
  30 H30            1.2882     3.8735     0.0099 H       
  31 H31            5.5939     3.9031    -0.9187 H       
  32 H32            5.6098     3.8935     0.8612 H       
  33 H33            7.8167     2.7631     0.8353 H       
  34 H34            7.8008     2.7728    -0.9445 H       
  35 H35            7.6981     5.2502    -0.9302 H       
  36 H36            7.7140     5.2406     0.8496 H       
  37 H37            9.6774     6.3997    -1.2065 H       
  38 H38            9.8731     6.6257     0.5480 H       
  39 H39           11.8417     5.2017    -1.3004 H       
  40 H40           12.0517     6.8287    -0.6080 H       
  41 H41           12.0080     5.8850     1.6713 H       
  42 H42           11.7635     3.1951     0.2465 H       
  43 H43           11.9197     3.4417     2.0031 H       
  44 H44            9.7987     4.7164     2.0199 H       
  45 H45            9.5483     3.0881     1.3464 H       
  46 H46           -1.0007     3.0667    -0.4906 H       
  47 H47           -2.0254     1.6113    -0.4926 H       
  48 H48           -0.8089     2.4286     2.1906 H       
  49 H49           -2.7415     4.0280     2.5661 H       
  50 H50           -3.2635     3.8093     0.8108 H       
  51 H51           -3.5773     1.3246     1.2137 H       
  52 H52           -3.0553     1.5434     2.9691 H       
@<TRIPOS>BOND
   1    1    2 1
   2    1    5 1
   3    1   24 1
   4    2    3 2
   5    3    4 1
   6    4    5 ar
   7    4    6 ar
   8    5    9 ar
   9    6    7 ar
  10    6   28 1
  11    7    8 ar
  12    7   10 1
  13    8    9 ar
  14    8   29 1
  15    9   30 1
  16   10   11 1
  17   11   12 1
  18   11   31 1
  19   11   32 1
  20   12   13 1
  21   12   33 1
  22   12   34 1
  23   13   14 1
  24   13   35 1
  25   13   36 1
  26   14   15 1
  27   14   19 1
  28   15   16 1
  29   15   37 1
  30   15   38 1
  31   16   17 1
  32   16   39 1
  33   16   40 1
  34   17   18 1
  35   17   20 1
  36   17   41 1
  37   18   19 1
  38   18   42 1
  39   18   43 1
  40   19   44 1
  41   19   45 1
  42   20   21 1
  43   20   22 1
  44   20   23 1
  45   24   25 1
  46   24   46 1
  47   24   47 1
  48   25   26 1
  49   25   27 1
  50   25   48 1
  51   26   27 1
  52   26   49 1
  53   26   50 1
  54   27   51 1
  55   27   52 1

#	End of record

