#	Name: ASD01880246
#	Creating user name:	WinNT
#	Creation time:	15. 06. 2019 19:40

#	Modifying user name:	WinNT
#	Modification time:	15. 06. 2019 19:40

#	Program:	/corina/corina34_cracker 3.40 0067  02.08.2006

@<TRIPOS>MOLECULE
ASD01880246
  36   38    0    0    0
SMALL
NO_CHARGES


@<TRIPOS>ATOM
   1 C1            -0.0184     1.5028     0.0103 C.3     
   2 C2             0.0021    -0.0041     0.0020 C.ar    
   3 C3            -0.0821    -0.6924     1.1983 C.ar    
   4 C4            -0.0630    -2.0767     1.1859 C.ar    
   5 C5             0.0416    -2.7271    -0.0464 C.ar    
   6 C6             0.1221    -1.9613    -1.2080 C.ar    
   7 N7             0.0946    -0.6458    -1.1468 N.ar    
   8 N8             1.3560     2.0099    -0.0001 N.am    
   9 C9             2.1471     2.3124    -1.2027 C.3     
  10 C10            3.4948     2.8051    -0.6411 C.3     
  11 O11            3.3236     2.7294     0.8038 O.3     
  12 C12            2.0955     2.2792     1.0845 C.2     
  13 C13            3.7612     4.2480    -1.0747 C.3     
  14 O14            1.6905     2.1211     2.2191 O.2     
  15 C15            0.0671    -4.2088    -0.1171 C.ar    
  16 C16           -0.7835    -4.8826    -0.9952 C.ar    
  17 C17           -0.7550    -6.2629    -1.0570 C.ar    
  18 C18            0.1156    -6.9760    -0.2495 C.ar    
  19 C19            0.9611    -6.3102     0.6231 C.ar    
  20 C20            0.9439    -4.9318     0.6884 C.ar    
  21 F21            0.1401    -8.3253    -0.3126 F       
  22 F22           -1.6329    -4.1870    -1.7825 F       
  23 H23           -0.5455     1.8639    -0.8728 H       
  24 H24           -0.5286     1.8543     0.9071 H       
  25 H25           -0.1616    -0.1559     2.1322 H       
  26 H26           -0.1269    -2.6396     2.1054 H       
  27 H27            0.2033    -2.4508    -2.1672 H       
  28 H28            2.2883     1.4143    -1.8041 H       
  29 H29            1.6675     3.0958    -1.7895 H       
  30 H30            4.3053     2.1520    -0.9646 H       
  31 H31            2.9654     4.8924    -0.7013 H       
  32 H32            4.7172     4.5787    -0.6688 H       
  33 H33            3.7909     4.3007    -2.1631 H       
  34 H34           -1.4125    -6.7861    -1.7355 H       
  35 H35            1.6378    -6.8709     1.2509 H       
  36 H36            1.6038    -4.4146     1.3693 H       
@<TRIPOS>BOND
   1    1    2 1
   2    1    8 1
   3    1   23 1
   4    1   24 1
   5    2    3 ar
   6    2    7 ar
   7    3    4 ar
   8    3   25 1
   9    4    5 ar
  10    4   26 1
  11    5    6 ar
  12    5   15 1
  13    6    7 ar
  14    6   27 1
  15    8    9 1
  16    8   12 am
  17    9   10 1
  18    9   28 1
  19    9   29 1
  20   10   11 1
  21   10   13 1
  22   10   30 1
  23   11   12 1
  24   12   14 2
  25   13   31 1
  26   13   32 1
  27   13   33 1
  28   15   16 ar
  29   15   20 ar
  30   16   17 ar
  31   16   22 1
  32   17   18 ar
  33   17   34 1
  34   18   19 ar
  35   18   21 1
  36   19   20 ar
  37   19   35 1
  38   20   36 1

#	End of record

