#	Name: ASD05723015
#	Creating user name:	WinNT
#	Creation time:	15. 06. 2019 21:02

#	Modifying user name:	WinNT
#	Modification time:	15. 06. 2019 21:02

#	Program:	/corina/corina34_cracker 3.40 0067  02.08.2006

@<TRIPOS>MOLECULE
ASD05723015
 147  150    0    0    0
SMALL
NO_CHARGES


@<TRIPOS>ATOM
   1 O1             4.7212     0.7703     2.4865 O.3     
   2 O2             2.9679    -0.5129     0.6816 O.3     
   3 O3             3.0537     7.0686     3.5619 O.3     
   4 O4            -2.5162    11.0296     4.9012 O.3     
   5 O5            -2.4369     9.8078     2.9171 O.3     
   6 O6             1.0574     6.9560     2.5983 O.2     
   7 O7             4.7941     8.5538     0.2003 O.2     
   8 O8            -3.2611    14.3347     2.8149 O.3     
   9 O9            -2.7544     8.0909     5.8805 O.2     
  10 O10           -0.0426     8.9640     4.0851 O.2     
  11 O11            6.4632    12.3919    -1.8743 O.3     
  12 O12            7.9758    13.7004     1.1935 O.3     
  13 O13            6.8810    15.0623    -1.5026 O.2     
  14 N14           -0.3625     6.9381     4.8843 N.am    
  15 C15            2.9608     3.7111     0.9478 C.3     
  16 C16            3.7199     2.9184     2.0139 C.3     
  17 C17            1.6433     3.0024     0.6270 C.3     
  18 C18            2.6684     5.1189     1.4708 C.3     
  19 C19            4.0123     1.5106     1.4909 C.3     
  20 C20            1.9357     1.5946     0.1041 C.3     
  21 C21            2.6948     0.8019     1.1701 C.3     
  22 C22            3.9843     5.8766     1.6588 C.3     
  23 C23            3.6994     7.2488     2.2760 C.3     
  24 C24            4.6658     6.0596     0.3012 C.3     
  25 C25            5.0234     7.9938     2.4775 C.3     
  26 C26           -4.3653     9.5701     4.3440 C.3     
  27 C27            1.0654     6.6098     4.9292 C.3     
  28 C28           -2.8477     9.7844     4.2882 C.3     
  29 C29           -3.1121    12.1766     4.2725 C.3     
  30 C30           -5.0941    10.7660     3.7280 C.3     
  31 C31           -4.6331    12.0614     4.3983 C.3     
  32 C32            1.2347     5.1170     5.2621 C.3     
  33 C33            1.7237     6.8951     3.6024 C.2     
  34 C34            5.5029     8.5817     1.1803 C.2     
  35 C35           -1.3367     5.8526     5.1060 C.3     
  36 C36            0.4560     4.7825     6.5297 C.3     
  37 C37           -1.0192     5.1253     6.4059 C.3     
  38 C38           -2.6202    13.4361     4.9797 C.3     
  39 C39            5.6069    -0.2175     1.9556 C.3     
  40 C40           -2.1638     8.6435     4.9878 C.2     
  41 C41           -0.8000     8.1809     4.6291 C.2     
  42 C42           -4.7321     8.3070     3.5586 C.3     
  43 C43            6.8671     9.2224     1.0721 C.3     
  44 C44           -2.8255    14.6855     4.1259 C.3     
  45 C45            7.4558     9.4065     2.4725 C.3     
  46 C46            6.7242    10.5656     0.4075 C.2     
  47 C47           -1.5281    15.4545     4.0411 C.2     
  48 C48            7.6948    11.1617    -0.2288 C.2     
  49 C49           -0.9382    16.0380     5.3035 C.3     
  50 C50            7.4481    12.5212    -0.8466 C.3     
  51 C51           -4.0917    15.3189     2.1956 C.3     
  52 C52           -0.9142    15.6368     2.8778 C.2     
  53 C53            6.9356    13.4753     0.2369 C.3     
  54 C54            9.0582    10.5353    -0.3729 C.3     
  55 C55           -4.4974    14.8392     0.8005 C.3     
  56 C56            6.5307    14.7867    -0.3786 C.2     
  57 C57            5.6865    15.7772     0.3974 C.3     
  58 C58            0.3627    16.3463     2.7871 C.2     
  59 C59            5.0988    16.7871    -0.5816 C.3     
  60 C60            4.2026    17.8348     0.0734 C.3     
  61 C61            4.5802    15.0136     1.1257 C.3     
  62 C62            0.9286    16.5439     1.5786 C.2     
  63 C63            2.8346    17.2672     0.3097 C.2     
  64 C64            2.2515    17.1821     1.4973 C.2     
  65 C65            4.8293    18.4025     1.3383 C.3     
  66 C66            7.5023    13.9658     2.5154 C.3     
  67 H67            2.1765    -1.0215     0.4575 H       
  68 H68           -1.4877     9.9448     2.7932 H       
  69 H69            6.7160    11.7905    -2.5880 H       
  70 H70            3.5669     3.7777     0.0443 H       
  71 H71            4.6585     3.4233     2.2424 H       
  72 H72            3.1138     2.8518     2.9174 H       
  73 H73            1.0372     2.9357     1.5305 H       
  74 H74            1.1025     3.5670    -0.1324 H       
  75 H75            2.0425     5.6501     0.7538 H       
  76 H76            2.1487     5.0508     2.4265 H       
  77 H77            4.6184     1.5773     0.5874 H       
  78 H78            0.9971     1.0897    -0.1245 H       
  79 H79            2.5418     1.6612    -0.7994 H       
  80 H80            2.0887     0.7353     2.0736 H       
  81 H81            4.6389     5.3094     2.3204 H       
  82 H82            3.0544     7.8218     1.6145 H       
  83 H83            5.6454     6.5154     0.4450 H       
  84 H84            4.7839     5.0886    -0.1798 H       
  85 H85            4.0537     6.7050    -0.3286 H       
  86 H86            4.8662     8.7914     3.2052 H       
  87 H87            5.7644     7.2900     2.8602 H       
  88 H88           -4.6776     9.4518     5.3819 H       
  89 H89            1.5422     7.2070     5.7063 H       
  90 H90           -2.8317    12.1890     3.2230 H       
  91 H91           -4.8801    10.8075     2.6590 H       
  92 H92           -6.1681    10.6432     3.8749 H       
  93 H93           -4.9096    12.0445     5.4529 H       
  94 H94           -5.1079    12.9121     3.9111 H       
  95 H95            0.8565     4.5146     4.4362 H       
  96 H96            2.2919     4.8946     5.4155 H       
  97 H97           -2.3468     6.2458     5.1462 H       
  98 H98           -1.2706     5.1380     4.2802 H       
  99 H99            0.5578     3.7176     6.7367 H       
 100 H100           0.8809     5.3463     7.3596 H       
 101 H101          -1.3064     5.7597     7.2435 H       
 102 H102          -1.5962     4.2013     6.4429 H       
 103 H103          -3.1679    13.5521     5.9185 H       
 104 H104          -1.5569    13.3210     5.2057 H       
 105 H105           6.1066    -0.7351     2.7744 H       
 106 H106           5.0381    -0.9357     1.3650 H       
 107 H107           6.3515     0.2649     1.3224 H       
 108 H108          -4.2274     7.4466     3.9980 H       
 109 H109          -5.8107     8.1548     3.5984 H       
 110 H110          -4.4192     8.4208     2.5207 H       
 111 H111           7.5115     8.5741     0.4830 H       
 112 H112          -3.5812    15.3234     4.5923 H       
 113 H113           7.5477     8.4352     2.9586 H       
 114 H114           8.4399     9.8686     2.3951 H       
 115 H115           6.7991    10.0468     3.0614 H       
 116 H116           5.7583    11.0662     0.4594 H       
 117 H117          -0.2709    15.3091     5.7634 H       
 118 H118          -0.3777    16.9404     5.0593 H       
 119 H119          -1.7404    16.2856     5.9987 H       
 120 H120           8.3762    12.9035    -1.2650 H       
 121 H121          -4.9850    15.4733     2.8008 H       
 122 H122          -3.5429    16.2569     2.1119 H       
 123 H123          -1.3585    15.2630     1.9644 H       
 124 H124           6.0920    13.0034     0.7387 H       
 125 H125           9.0660     9.5641     0.1219 H       
 126 H126           9.2888    10.4061    -1.4303 H       
 127 H127           9.8058    11.1826     0.0856 H       
 128 H128          -3.6041    14.6847     0.1954 H       
 129 H129          -5.0463    13.9011     0.8842 H       
 130 H130          -5.1310    15.5899     0.3282 H       
 131 H131           6.3303    16.2735     1.1232 H       
 132 H132           0.8697    16.7119     3.6632 H       
 133 H133           5.9196    17.2975    -1.0990 H       
 134 H134           4.5163    16.2496    -1.3410 H       
 135 H135           4.0956    18.6718    -0.6452 H       
 136 H136           5.0266    14.2919     1.8097 H       
 137 H137           3.9646    15.7151     1.6887 H       
 138 H138           3.9608    14.4895     0.3979 H       
 139 H139           0.4206    16.2344     0.6814 H       
 140 H140           2.2722    16.9016    -0.5552 H       
 141 H141           2.6945    17.5562     2.4048 H       
 142 H142           5.7818    18.8721     1.0927 H       
 143 H143           4.1601    19.1445     1.7740 H       
 144 H144           4.9950    17.5977     2.0545 H       
 145 H145           8.3512    14.1253     3.1803 H       
 146 H146           6.8764    14.8581     2.5049 H       
 147 H147           6.9181    13.1164     2.8694 H       
@<TRIPOS>BOND
   1    1   39 1
   2    1   19 1
   3    2   21 1
   4    2   67 1
   5    3   23 1
   6    3   33 1
   7    4   28 1
   8    4   29 1
   9    5   28 1
  10    5   68 1
  11    6   33 2
  12    7   34 2
  13    8   51 1
  14    8   44 1
  15    9   40 2
  16   10   41 2
  17   11   50 1
  18   11   69 1
  19   12   66 1
  20   12   53 1
  21   13   56 2
  22   14   27 1
  23   14   35 1
  24   14   41 am
  25   15   16 1
  26   15   17 1
  27   15   18 1
  28   15   70 1
  29   16   19 1
  30   16   71 1
  31   16   72 1
  32   17   20 1
  33   17   73 1
  34   17   74 1
  35   18   22 1
  36   18   75 1
  37   18   76 1
  38   19   21 1
  39   19   77 1
  40   20   21 1
  41   20   78 1
  42   20   79 1
  43   21   80 1
  44   22   24 1
  45   22   23 1
  46   22   81 1
  47   23   25 1
  48   23   82 1
  49   24   83 1
  50   24   84 1
  51   24   85 1
  52   25   34 1
  53   25   86 1
  54   25   87 1
  55   26   28 1
  56   26   30 1
  57   26   42 1
  58   26   88 1
  59   27   32 1
  60   27   33 1
  61   27   89 1
  62   28   40 1
  63   29   31 1
  64   29   38 1
  65   29   90 1
  66   30   31 1
  67   30   91 1
  68   30   92 1
  69   31   93 1
  70   31   94 1
  71   32   36 1
  72   32   95 1
  73   32   96 1
  74   34   43 1
  75   35   37 1
  76   35   97 1
  77   35   98 1
  78   36   37 1
  79   36   99 1
  80   36  100 1
  81   37  101 1
  82   37  102 1
  83   38   44 1
  84   38  103 1
  85   38  104 1
  86   39  105 1
  87   39  106 1
  88   39  107 1
  89   40   41 1
  90   42  108 1
  91   42  109 1
  92   42  110 1
  93   43   45 1
  94   43   46 1
  95   43  111 1
  96   44   47 1
  97   44  112 1
  98   45  113 1
  99   45  114 1
 100   45  115 1
 101   46   48 2
 102   46  116 1
 103   47   49 1
 104   47   52 2
 105   48   50 1
 106   48   54 1
 107   49  117 1
 108   49  118 1
 109   49  119 1
 110   50   53 1
 111   50  120 1
 112   51   55 1
 113   51  121 1
 114   51  122 1
 115   52   58 1
 116   52  123 1
 117   53   56 1
 118   53  124 1
 119   54  125 1
 120   54  126 1
 121   54  127 1
 122   55  128 1
 123   55  129 1
 124   55  130 1
 125   56   57 1
 126   57   59 1
 127   57   61 1
 128   57  131 1
 129   58   62 2
 130   58  132 1
 131   59   60 1
 132   59  133 1
 133   59  134 1
 134   60   63 1
 135   60   65 1
 136   60  135 1
 137   61  136 1
 138   61  137 1
 139   61  138 1
 140   62   64 1
 141   62  139 1
 142   63   64 2
 143   63  140 1
 144   64  141 1
 145   65  142 1
 146   65  143 1
 147   65  144 1
 148   66  145 1
 149   66  146 1
 150   66  147 1

#	End of record

