#	Name: ASD03330334
#	Creating user name:	WinNT
#	Creation time:	15. 06. 2019 20:37

#	Modifying user name:	WinNT
#	Modification time:	15. 06. 2019 20:37

#	Program:	/corina/corina34_cracker 3.40 0067  02.08.2006

@<TRIPOS>MOLECULE
ASD03330334
  67   72    0    0    0
SMALL
NO_CHARGES


@<TRIPOS>ATOM
   1 C1             0.8983     1.2488    -1.3582 C.3     
   2 N2             0.8143    -0.2180    -1.2899 N.am    
   3 C3             1.4493    -0.9992    -2.3685 C.3     
   4 C4             2.7880    -0.3599    -2.6448 C.2     
   5 N5             3.1764     0.8393    -2.1427 N.pl3   
   6 C6             2.3663     1.6773    -1.2555 C.3     
   7 C7             3.8075    -0.8315    -3.4068 C.2     
   8 N8             4.8032     0.0826    -3.3693 N.2     
   9 C9             4.4302     1.0898    -2.6135 C.2     
  10 C10            5.2367     2.2956    -2.3224 C.ar    
  11 C11            6.3603     2.5901    -3.0951 C.ar    
  12 C12            3.8261    -2.1089    -4.1414 C.2     
  13 O13            2.8633    -2.8506    -4.0959 O.2     
  14 C14            4.9286    -3.7251    -5.5938 C.3     
  15 N15            4.9101    -2.4552    -4.8635 N.am    
  16 C16            0.1769    -0.8301    -0.2723 C.2     
  17 O17           -0.2454    -0.1757     0.6627 O.2     
  18 C18            7.1080     3.7164    -2.8189 C.ar    
  19 C19            6.7455     4.5528    -1.7782 C.ar    
  20 C20            5.6324     4.2662    -1.0083 C.ar    
  21 C21            4.8734     3.1459    -1.2777 C.ar    
  22 C22            5.9160    -3.6453    -6.7980 C.3     
  23 C23            5.8631    -4.3046    -3.3200 C.3     
  24 C24            5.4930    -4.8527    -4.6997 C.3     
  25 C25           -0.0078    -2.2849    -0.2919 C.2     
  26 C26            4.4753    -5.9874    -4.5662 C.3     
  27 C27            5.6557    -4.9547    -7.6036 C.3     
  28 C28            6.2201    -6.0824    -6.7094 C.3     
  29 C29            6.7682    -5.3480    -5.4478 C.3     
  30 C30            7.2687    -4.0054    -6.0882 C.3     
  31 C31            5.8830    -2.3458    -7.6049 C.3     
  32 C32           -0.5185    -3.0426     0.7227 C.2     
  33 C33           -0.5140    -4.3728     0.2747 C.2     
  34 C34           -0.0071    -4.3688    -0.9779 C.2     
  35 O35            0.2918    -3.1083    -1.3178 O.3     
  36 H36            0.4841     1.5933    -2.3058 H       
  37 H37            0.3336     1.6844    -0.5339 H       
  38 H38            1.5890    -2.0314    -2.0476 H       
  39 H39            0.8299    -0.9677    -3.2649 H       
  40 H40            2.4625     2.7215    -1.5529 H       
  41 H41            2.7095     1.5575    -0.2279 H       
  42 H42            6.6445     1.9377    -3.9076 H       
  43 H43            3.9265    -3.9780    -5.9402 H       
  44 H44            5.6779    -1.8636    -4.8998 H       
  45 H45            7.9782     3.9453    -3.4162 H       
  46 H46            7.3341     5.4329    -1.5658 H       
  47 H47            5.3545     4.9230    -0.1972 H       
  48 H48            4.0047     2.9232    -0.6759 H       
  49 H49            4.9757    -3.8859    -2.8453 H       
  50 H50            6.2588    -5.1112    -2.7028 H       
  51 H51            6.6184    -3.5263    -3.4289 H       
  52 H52            3.6400    -5.6556    -3.9495 H       
  53 H53            4.1094    -6.2653    -5.5546 H       
  54 H54            4.9516    -6.8495    -4.0994 H       
  55 H55            4.5869    -5.0960    -7.7641 H       
  56 H56            6.1834    -4.9256    -8.5568 H       
  57 H57            5.4287    -6.7780    -6.4304 H       
  58 H58            7.0253    -6.6076    -7.2231 H       
  59 H59            7.4869    -5.9052    -4.8469 H       
  60 H60            8.0747    -4.1692    -6.8035 H       
  61 H61            7.5425    -3.2691    -5.3325 H       
  62 H62            6.1304    -1.5074    -6.9538 H       
  63 H63            6.6095    -2.4030    -8.4155 H       
  64 H64            4.8857    -2.2013    -8.0204 H       
  65 H65           -0.8596    -2.6873     1.6838 H       
  66 H66           -0.8520    -5.2370     0.8272 H       
  67 H67            0.1310    -5.2384    -1.6034 H       
@<TRIPOS>BOND
   1    1    2 1
   2    1    6 1
   3    1   36 1
   4    1   37 1
   5    2    3 1
   6    2   16 am
   7    3    4 1
   8    3   38 1
   9    3   39 1
  10    4    5 1
  11    4    7 2
  12    5    6 1
  13    5    9 1
  14    6   40 1
  15    6   41 1
  16    7    8 1
  17    7   12 1
  18    8    9 2
  19    9   10 1
  20   10   11 ar
  21   10   21 ar
  22   11   18 ar
  23   11   42 1
  24   12   13 2
  25   12   15 am
  26   14   22 1
  27   14   15 1
  28   14   24 1
  29   14   43 1
  30   15   44 1
  31   16   17 2
  32   16   25 1
  33   18   19 ar
  34   18   45 1
  35   19   20 ar
  36   19   46 1
  37   20   21 ar
  38   20   47 1
  39   21   48 1
  40   22   27 1
  41   22   31 1
  42   22   30 1
  43   23   24 1
  44   23   49 1
  45   23   50 1
  46   23   51 1
  47   24   26 1
  48   24   29 1
  49   25   32 2
  50   25   35 1
  51   26   52 1
  52   26   53 1
  53   26   54 1
  54   27   28 1
  55   27   55 1
  56   27   56 1
  57   28   29 1
  58   28   57 1
  59   28   58 1
  60   29   30 1
  61   29   59 1
  62   30   60 1
  63   30   61 1
  64   31   62 1
  65   31   63 1
  66   31   64 1
  67   32   33 1
  68   32   65 1
  69   33   34 2
  70   33   66 1
  71   34   35 1
  72   34   67 1

#	End of record

