#	Name: ASD06170411
#	Creating user name:	WinNT
#	Creation time:	15. 06. 2019 21:05

#	Modifying user name:	WinNT
#	Modification time:	15. 06. 2019 21:05

#	Program:	/corina/corina34_cracker 3.40 0067  02.08.2006

@<TRIPOS>MOLECULE
ASD06170411
  35   37    0    0    0
SMALL
NO_CHARGES


@<TRIPOS>ATOM
   1 C1            -0.0179     1.4674     0.0101 C.ar    
   2 C2             0.0021    -0.0041     0.0020 C.2     
   3 C3            -1.2926    -0.7753     0.0102 C.3     
   4 C4            -0.9927    -2.2755    -0.0007 C.3     
   5 C5            -0.2124    -2.6694     1.2354 C.2     
   6 C6            -2.2728    -3.0722     0.1034 C.ar    
   7 C7            -2.1787    -3.8119     1.2752 C.ar    
   8 O8             0.8846    -2.2626     1.5550 O.2     
   9 O9             1.0602    -0.5960    -0.0113 O.2     
  10 C10           -3.3879    -3.1612    -0.6992 C.ar    
  11 C11           -4.4323    -3.9964    -0.3399 C.ar    
  12 C12           -4.3501    -4.7383     0.8253 C.ar    
  13 C13           -3.2335    -4.6507     1.6303 C.ar    
  14 N14           -0.9640    -3.5540     1.9123 N.am    
  15 Br15          -5.9668    -4.1222    -1.4379 Br      
  16 O16           -0.2724    -2.6322    -1.1822 O.3     
  17 C17            1.1813     2.1866     0.0025 C.ar    
  18 C18            1.1543     3.5654     0.0097 C.ar    
  19 C19           -0.0554     4.2372     0.0248 C.ar    
  20 C20           -1.2468     3.5325     0.0329 C.ar    
  21 C21           -1.2365     2.1539     0.0196 C.ar    
  22 N22            2.4223     4.3286     0.0017 N.pl3   
  23 O23            3.4880     3.7388    -0.0112 O.2     
  24 O24            2.4003     5.5464     0.0080 O.2     
  25 H25           -1.8592    -0.5245     0.9070 H       
  26 H26           -1.8762    -0.5150    -0.8728 H       
  27 H27           -3.4479    -2.5806    -1.6079 H       
  28 H28           -5.1646    -5.3898     1.1058 H       
  29 H29           -3.1767    -5.2330     2.5381 H       
  30 H30           -0.6933    -3.9662     2.7476 H       
  31 H31            0.5721    -2.1719    -1.2821 H       
  32 H32            2.1262     1.6637    -0.0086 H       
  33 H33           -0.0701     5.3171     0.0308 H       
  34 H34           -2.1869     4.0640     0.0451 H       
  35 H35           -2.1669     1.6054     0.0258 H       
@<TRIPOS>BOND
   1    1    2 1
   2    1   17 ar
   3    1   21 ar
   4    2    3 1
   5    2    9 2
   6    3    4 1
   7    3   25 1
   8    3   26 1
   9    4    5 1
  10    4   16 1
  11    4    6 1
  12    5    8 2
  13    5   14 am
  14    6    7 ar
  15    6   10 ar
  16    7   14 1
  17    7   13 ar
  18   10   11 ar
  19   10   27 1
  20   11   12 ar
  21   11   15 1
  22   12   13 ar
  23   12   28 1
  24   13   29 1
  25   14   30 1
  26   16   31 1
  27   17   18 ar
  28   17   32 1
  29   18   19 ar
  30   18   22 1
  31   19   20 ar
  32   19   33 1
  33   20   21 ar
  34   20   34 1
  35   21   35 1
  36   22   23 2
  37   22   24 2

#	End of record

