#	Name: ASD01941076
#	Creating user name:	WinNT
#	Creation time:	15. 06. 2019 20:13

#	Modifying user name:	WinNT
#	Modification time:	15. 06. 2019 20:13

#	Program:	/corina/corina34_cracker 3.40 0067  02.08.2006

@<TRIPOS>MOLECULE
ASD01941076
  40   41    0    0    0
SMALL
NO_CHARGES


@<TRIPOS>ATOM
   1 C1             0.0095     1.3431     0.0340 C.ar    
   2 C2            -0.0332     0.8373     1.3277 C.ar    
   3 C3            -1.0857     0.0286     1.7204 C.ar    
   4 C4            -2.1029    -0.2819     0.8277 C.ar    
   5 C5            -2.0751     0.2113    -0.4574 C.ar    
   6 C6            -1.0219     1.0341    -0.8673 C.ar    
   7 F7            -1.1233    -0.4615     2.9788 F       
   8 F8             0.9529     1.1345     2.2021 F       
   9 C9            -0.9882     1.5645    -2.2413 C.2     
  10 O10           -0.1262     2.3588    -2.5655 O.2     
  11 N11           -1.9127     1.1695    -3.1390 N.am    
  12 N12            1.0654     2.1558    -0.3641 N.pl3   
  13 C13            2.2552     1.5816    -0.8239 C.ar    
  14 C14            3.3536     2.3865    -1.1076 C.ar    
  15 C15            4.5278     1.8148    -1.5619 C.ar    
  16 C16            4.6097     0.4447    -1.7343 C.ar    
  17 C17            3.5184    -0.3575    -1.4531 C.ar    
  18 C18            2.3443     0.2062    -0.9926 C.ar    
  19 F19            3.2731     3.7246    -0.9401 F       
  20 I20            6.3905    -0.4174    -2.4234 I       
  21 O21           -1.8803     1.6794    -4.4596 O.3     
  22 C22           -2.9182     1.1755    -5.3028 C.3     
  23 C23           -2.7861     1.7907    -6.6974 C.3     
  24 C24           -3.8184     1.1589    -7.6334 C.3     
  25 O25           -3.6192     1.6474    -8.9615 O.3     
  26 O26           -3.0124     3.1995    -6.6200 O.3     
  27 H27           -2.9199    -0.9140     1.1430 H       
  28 H28           -2.8691    -0.0337    -1.1472 H       
  29 H29           -2.6002     0.5360    -2.8804 H       
  30 H30            0.9768     3.1209    -0.3231 H       
  31 H31            5.3815     2.4384    -1.7827 H       
  32 H32            3.5859    -1.4268    -1.5892 H       
  33 H33            1.4932    -0.4214    -0.7732 H       
  34 H34           -2.8338     0.0911    -5.3745 H       
  35 H35           -3.8885     1.4372    -4.8807 H       
  36 H36           -1.7838     1.6044    -7.0833 H       
  37 H37           -3.7025     0.0751    -7.6237 H       
  38 H38           -4.8218     1.4200    -7.2969 H       
  39 H39           -4.2401     1.2881    -9.6099 H       
  40 H40           -3.8868     3.4395    -6.2840 H       
@<TRIPOS>BOND
   1    1    2 ar
   2    1   12 1
   3    1    6 ar
   4    2    3 ar
   5    2    8 1
   6    3    4 ar
   7    3    7 1
   8    4    5 ar
   9    4   27 1
  10    5    6 ar
  11    5   28 1
  12    6    9 1
  13    9   10 2
  14    9   11 am
  15   11   21 1
  16   11   29 1
  17   12   13 1
  18   12   30 1
  19   13   14 ar
  20   13   18 ar
  21   14   15 ar
  22   14   19 1
  23   15   16 ar
  24   15   31 1
  25   16   17 ar
  26   16   20 1
  27   17   18 ar
  28   17   32 1
  29   18   33 1
  30   21   22 1
  31   22   23 1
  32   22   34 1
  33   22   35 1
  34   23   24 1
  35   23   26 1
  36   23   36 1
  37   24   25 1
  38   24   37 1
  39   24   38 1
  40   25   39 1
  41   26   40 1

#	End of record

