#	Name: ASD03092784
#	Creating user name:	WinNT
#	Creation time:	15. 06. 2019 20:33

#	Modifying user name:	WinNT
#	Modification time:	15. 06. 2019 20:33

#	Program:	/corina/corina34_cracker 3.40 0067  02.08.2006

@<TRIPOS>MOLECULE
ASD03092784
  63   66    0    0    0
SMALL
NO_CHARGES


@<TRIPOS>ATOM
   1 C1            -0.9779     1.2092    -1.2545 C.3     
   2 C2            -0.7952    -0.3098    -1.2338 C.3     
   3 H3            -1.7567    -0.7943    -1.4035 H       
   4 C4             0.1861    -0.7216    -2.3344 C.3     
   5 N5             0.4171    -2.1716    -2.2603 N.3     
   6 C6             0.9503    -2.5476    -0.9429 C.3     
   7 C7            -0.0387    -2.1174     0.1437 C.3     
   8 H8            -0.9780    -2.6551     0.0145 H       
   9 C9             0.5462    -2.4345     1.5215 C.3     
  10 O10           -0.2759    -0.7111     0.0368 O.3     
  11 C11            1.2659    -2.5954    -3.2826 C.ar    
  12 C12            1.7717    -1.6733    -4.1919 C.ar    
  13 C13            2.6108    -2.0900    -5.2030 C.ar    
  14 C14            2.9526    -3.4372    -5.3132 C.ar    
  15 C15            2.4444    -4.3604    -4.3997 C.ar    
  16 C16            2.8121    -5.8172    -4.5163 C.3     
  17 N17            4.1990    -6.0070    -4.0841 N.am    
  18 C18            4.7193    -7.2483    -4.0142 C.2     
  19 O19            4.0377    -8.2105    -4.3099 O.2     
  20 C20            6.1177    -7.4396    -3.5784 C.ar    
  21 C21            6.9422    -6.3334    -3.3636 C.ar    
  22 C22            8.2464    -6.5176    -2.9565 C.ar    
  23 C23            8.7396    -7.7983    -2.7603 C.ar    
  24 F24           10.0184    -7.9732    -2.3612 F       
  25 C25            7.9249    -8.9004    -2.9717 C.ar    
  26 C26            6.6182    -8.7275    -3.3741 C.ar    
  27 C27            5.7325    -9.9259    -3.5984 C.3     
  28 C28            1.6098    -3.9389    -3.3875 C.ar    
  29 C29            3.8546    -3.8878    -6.4003 C.ar    
  30 C30            3.4491    -4.8695    -7.3093 C.ar    
  31 C31            4.3198    -5.2592    -8.3060 C.ar    
  32 N32            5.5191    -4.7187    -8.4071 N.ar    
  33 C33            5.9405    -3.7897    -7.5700 C.ar    
  34 C34            7.3215    -3.2100    -7.7368 C.3     
  35 C35            5.1321    -3.3383    -6.5478 C.ar    
  36 H36           -0.0161     1.6931    -1.0847 H       
  37 H37           -1.3723     1.5145    -2.2237 H       
  38 H38           -1.6755     1.5019    -0.4697 H       
  39 H39           -0.2325    -0.4690    -3.3085 H       
  40 H40            1.1304    -0.1951    -2.1957 H       
  41 H41            1.0895    -3.6278    -0.9013 H       
  42 H42            1.9068    -2.0502    -0.7820 H       
  43 H43            1.4846    -1.8953     1.6507 H       
  44 H44           -0.1584    -2.1280     2.2946 H       
  45 H45            0.7290    -3.5061     1.6007 H       
  46 H46            1.5067    -0.6298    -4.1062 H       
  47 H47            3.0029    -1.3735    -5.9096 H       
  48 H48            2.1505    -6.4106    -3.8852 H       
  49 H49            2.7078    -6.1364    -5.5533 H       
  50 H50            4.7428    -5.2392    -3.8481 H       
  51 H51            6.5591    -5.3353    -3.5165 H       
  52 H52            8.8850    -5.6627    -2.7904 H       
  53 H53            8.3141    -9.8960    -2.8174 H       
  54 H54            5.7201   -10.1750    -4.6595 H       
  55 H55            6.1171   -10.7732    -3.0308 H       
  56 H56            4.7197    -9.6963    -3.2673 H       
  57 H57            1.2193    -4.6528    -2.6775 H       
  58 H58            2.4689    -5.3164    -7.2323 H       
  59 H59            4.0157    -6.0170    -9.0128 H       
  60 H60            7.2742    -2.3417    -8.3940 H       
  61 H61            7.7089    -2.9083    -6.7636 H       
  62 H62            7.9804    -3.9606    -8.1733 H       
  63 H63            5.4817    -2.5744    -5.8692 H       
@<TRIPOS>BOND
   1    1    2 1
   2    1   36 1
   3    1   37 1
   4    1   38 1
   5    2    3 1
   6    2   10 1
   7    2    4 1
   8    4    5 1
   9    4   39 1
  10    4   40 1
  11    5    6 1
  12    5   11 1
  13    6    7 1
  14    6   41 1
  15    6   42 1
  16    7    8 1
  17    7    9 1
  18    7   10 1
  19    9   43 1
  20    9   44 1
  21    9   45 1
  22   11   28 ar
  23   11   12 ar
  24   12   13 ar
  25   12   46 1
  26   13   14 ar
  27   13   47 1
  28   14   15 ar
  29   14   29 1
  30   15   16 1
  31   15   28 ar
  32   16   17 1
  33   16   48 1
  34   16   49 1
  35   17   18 am
  36   17   50 1
  37   18   19 2
  38   18   20 1
  39   20   26 ar
  40   20   21 ar
  41   21   22 ar
  42   21   51 1
  43   22   23 ar
  44   22   52 1
  45   23   24 1
  46   23   25 ar
  47   25   26 ar
  48   25   53 1
  49   26   27 1
  50   27   54 1
  51   27   55 1
  52   27   56 1
  53   28   57 1
  54   29   35 ar
  55   29   30 ar
  56   30   31 ar
  57   30   58 1
  58   31   32 ar
  59   31   59 1
  60   32   33 ar
  61   33   34 1
  62   33   35 ar
  63   34   60 1
  64   34   61 1
  65   34   62 1
  66   35   63 1

#	End of record

