#	Name: ASD09740689
#	Creating user name:	WinNT
#	Creation time:	15. 06. 2019 21:23

#	Modifying user name:	WinNT
#	Modification time:	15. 06. 2019 21:23

#	Program:	/corina/corina34_cracker 3.40 0067  02.08.2006

@<TRIPOS>MOLECULE
ASD09740689
  61   64    0    0    0
SMALL
NO_CHARGES


@<TRIPOS>ATOM
   1 C1             0.0032     0.0606     0.4290 C.1     
   2 C2            -0.0174     1.4292     0.0082 C.ar    
   3 C3             1.1858     2.1186    -0.2050 C.ar    
   4 C4             1.1625     3.4445    -0.6125 C.ar    
   5 C5            -0.0399     4.0893    -0.8094 C.ar    
   6 C6            -1.2443     3.4125    -0.5996 C.ar    
   7 C7            -1.2332     2.0800    -0.1966 C.ar    
   8 N8             0.0196    -1.0251     0.7628 N.1     
   9 S9            -2.7364     5.7850    -1.3255 S.3     
  10 C10           -2.5310     4.1100    -0.8116 C.2     
  11 N11           -3.7221     3.5977    -0.6531 N.2     
  12 N12           -4.6959     4.3663    -0.8880 N.2     
  13 C13           -4.4354     5.5773    -1.2600 C.2     
  14 C14           -8.0914     5.0889    -3.8246 C.3     
  15 C15           -7.0065     5.3422    -4.8984 C.3     
  16 C16           -6.1049     6.3867    -4.1983 C.3     
  17 C17           -6.3274     6.1654    -2.7273 C.2     
  18 C18           -5.4601     6.6342    -1.5826 C.3     
  19 C19           -6.3447     6.8799    -0.3598 C.3     
  20 C20           -7.3226     5.7612    -0.1416 C.2     
  21 C21           -7.8667     5.0912    -1.1550 C.2     
  22 C22           -7.4383     5.4490    -2.5210 C.2     
  23 N23           -9.2585     5.9478    -4.0654 N.3     
  24 C24          -10.1915     5.3160    -5.0080 C.3     
  25 C25          -11.3914     6.2382    -5.2332 C.3     
  26 S26          -12.5435     5.4581    -6.3971 S.o2    
  27 O27          -11.9069     5.3542    -7.6633 O.2     
  28 O28          -13.0772     4.2890    -5.7908 O.2     
  29 C29          -13.8593     6.7015    -6.5121 C.3     
  30 O30            2.3719     1.4888    -0.0122 O.3     
  31 C31            3.5544     2.2824    -0.1297 C.3     
  32 C32            4.6797     1.6451     0.6879 C.3     
  33 C33            3.9727     2.3597    -1.5994 C.3     
  34 H34            2.0898     3.9735    -0.7758 H       
  35 H35           -0.0510     5.1215    -1.1267 H       
  36 H36           -2.1630     1.5538    -0.0386 H       
  37 H37           -8.3859     4.0395    -3.8237 H       
  38 H38           -6.4508     4.4296    -5.1140 H       
  39 H39           -7.4459     5.7532    -5.8073 H       
  40 H40           -5.0589     6.2165    -4.4534 H       
  41 H41           -6.4052     7.3961    -4.4796 H       
  42 H42           -4.9553     7.5589    -1.8619 H       
  43 H43           -5.7118     6.9750     0.5225 H       
  44 H44           -6.8954     7.8098    -0.5014 H       
  45 H45           -7.5924     5.4916     0.8688 H       
  46 H46           -8.5958     4.3131    -0.9834 H       
  47 H47           -9.7214     6.1801    -3.1995 H       
  48 H48           -9.6855     5.1399    -5.9571 H       
  49 H49          -10.5351     4.3664    -4.5977 H       
  50 H50          -11.8975     6.4144    -4.2840 H       
  51 H51          -11.0479     7.1878    -5.6435 H       
  52 H52          -13.4432     7.6375    -6.8847 H       
  53 H53          -14.6326     6.3501    -7.1952 H       
  54 H54          -14.2929     6.8640    -5.5253 H       
  55 H55            3.3568     3.2866     0.2451 H       
  56 H56            4.8773     0.6408     0.3131 H       
  57 H57            5.5817     2.2504     0.5983 H       
  58 H58            4.3817     1.5900     1.7349 H       
  59 H59            3.1711     2.8138    -2.1819 H       
  60 H60            4.8748     2.9651    -1.6891 H       
  61 H61            4.1704     1.3555    -1.9743 H       
@<TRIPOS>BOND
   1    1    2 1
   2    1    8 3
   3    2    3 ar
   4    2    7 ar
   5    3    4 ar
   6    3   30 1
   7    4    5 ar
   8    4   34 1
   9    5    6 ar
  10    5   35 1
  11    6    7 ar
  12    6   10 1
  13    7   36 1
  14    9   10 1
  15    9   13 1
  16   10   11 2
  17   11   12 1
  18   12   13 2
  19   13   18 1
  20   14   15 1
  21   14   22 1
  22   14   23 1
  23   14   37 1
  24   15   16 1
  25   15   38 1
  26   15   39 1
  27   16   17 1
  28   16   40 1
  29   16   41 1
  30   17   18 1
  31   17   22 2
  32   18   19 1
  33   18   42 1
  34   19   20 1
  35   19   43 1
  36   19   44 1
  37   20   21 2
  38   20   45 1
  39   21   22 1
  40   21   46 1
  41   23   24 1
  42   23   47 1
  43   24   25 1
  44   24   48 1
  45   24   49 1
  46   25   26 1
  47   25   50 1
  48   25   51 1
  49   26   27 2
  50   26   28 2
  51   26   29 1
  52   29   52 1
  53   29   53 1
  54   29   54 1
  55   30   31 1
  56   31   32 1
  57   31   33 1
  58   31   55 1
  59   32   56 1
  60   32   57 1
  61   32   58 1
  62   33   59 1
  63   33   60 1
  64   33   61 1

#	End of record

