#	Name: ASD03330522
#	Creating user name:	WinNT
#	Creation time:	15. 06. 2019 20:37

#	Modifying user name:	WinNT
#	Modification time:	15. 06. 2019 20:37

#	Program:	/corina/corina34_cracker 3.40 0067  02.08.2006

@<TRIPOS>MOLECULE
ASD03330522
  53   54    0    0    0
SMALL
NO_CHARGES


@<TRIPOS>ATOM
   1 C1             0.1619    -0.4305     1.0245 C.3     
   2 N2             0.1754    -1.8157     0.5335 N.3     
   3 C3             0.6161    -1.8775    -0.8718 C.3     
   4 C4             1.8911    -1.0842    -0.9955 C.2     
   5 N5             2.3273    -0.2043    -0.0563 N.pl3   
   6 C6             1.6003     0.0778     1.1852 C.3     
   7 C7             2.8032    -1.0837    -1.9973 C.2     
   8 N8             3.7836    -0.2053    -1.6521 N.2     
   9 C9             3.4952     0.3167    -0.4913 C.2     
  10 C10            4.3288     1.3345     0.2437 C.3     
  11 C11            2.7449    -1.8861    -3.2315 C.2     
  12 O12            1.8098    -2.6398    -3.4232 O.2     
  13 C13            3.6697    -2.5827    -5.3755 C.3     
  14 N14            3.7277    -1.7848    -4.1482 N.am    
  15 C15            2.8217    -1.8525    -6.4189 C.3     
  16 C16           -1.1408    -2.4463     0.7007 C.3     
  17 C17            3.3726    -0.4403    -6.6263 C.3     
  18 C18            2.8704    -2.6185    -7.7424 C.3     
  19 C19            1.3739    -1.7686    -5.9313 C.3     
  20 C20            5.0640    -2.7819    -5.9115 C.2     
  21 N21            5.3417    -3.8484    -6.6873 N.am    
  22 O22            5.9362    -1.9825    -5.6447 O.2     
  23 C23            3.8920     2.7427    -0.1652 C.3     
  24 C24            6.7194    -4.1044    -7.1146 C.3     
  25 H25           -0.3682     0.2014     0.3118 H       
  26 H26           -0.3457    -0.3926     1.9883 H       
  27 H27            0.7982    -2.9141    -1.1555 H       
  28 H28           -0.1496    -1.4473    -1.5173 H       
  29 H29            1.5922     1.1519     1.3706 H       
  30 H30            2.0810    -0.4360     2.0177 H       
  31 H31            4.1918     1.2091     1.3177 H       
  32 H32            5.3800     1.1929    -0.0075 H       
  33 H33            3.2222    -3.5524    -5.1576 H       
  34 H34            4.4734    -1.1836    -3.9953 H       
  35 H35           -1.8983    -1.8451     0.1978 H       
  36 H36           -1.1227    -3.4457     0.2660 H       
  37 H37           -1.3780    -2.5161     1.7623 H       
  38 H38            4.4041    -0.5001    -6.9737 H       
  39 H39            2.7685     0.0798    -7.3696 H       
  40 H40            3.3379     0.1054    -5.6834 H       
  41 H41            2.4440    -3.6119    -7.6032 H       
  42 H42            2.2965    -2.0790    -8.4958 H       
  43 H43            3.9056    -2.7103    -8.0711 H       
  44 H44            1.3391    -1.2229    -4.9884 H       
  45 H45            0.7697    -1.2484    -6.6746 H       
  46 H46            0.9813    -2.7746    -5.7835 H       
  47 H47            4.6294    -4.4464    -6.9628 H       
  48 H48            4.0290     2.8681    -1.2392 H       
  49 H49            2.8408     2.8843     0.0860 H       
  50 H50            4.4950     3.4788     0.3664 H       
  51 H51            7.0840    -3.2557    -7.6933 H       
  52 H52            7.3516    -4.2448    -6.2379 H       
  53 H53            6.7476    -5.0032    -7.7306 H       
@<TRIPOS>BOND
   1    1    2 1
   2    1    6 1
   3    1   25 1
   4    1   26 1
   5    2    3 1
   6    2   16 1
   7    3    4 1
   8    3   27 1
   9    3   28 1
  10    4    5 1
  11    4    7 2
  12    5    6 1
  13    5    9 1
  14    6   29 1
  15    6   30 1
  16    7    8 1
  17    7   11 1
  18    8    9 2
  19    9   10 1
  20   10   23 1
  21   10   31 1
  22   10   32 1
  23   11   12 2
  24   11   14 am
  25   13   14 1
  26   13   15 1
  27   13   20 1
  28   13   33 1
  29   14   34 1
  30   15   17 1
  31   15   18 1
  32   15   19 1
  33   16   35 1
  34   16   36 1
  35   16   37 1
  36   17   38 1
  37   17   39 1
  38   17   40 1
  39   18   41 1
  40   18   42 1
  41   18   43 1
  42   19   44 1
  43   19   45 1
  44   19   46 1
  45   20   21 am
  46   20   22 2
  47   21   24 1
  48   21   47 1
  49   23   48 1
  50   23   49 1
  51   23   50 1
  52   24   51 1
  53   24   52 1
  54   24   53 1

#	End of record

