#	Name: ASD01200180
#	Creating user name:	WinNT
#	Creation time:	15. 06. 2019 19:08

#	Modifying user name:	WinNT
#	Modification time:	15. 06. 2019 19:08

#	Program:	/corina/corina34_cracker 3.40 0067  02.08.2006

@<TRIPOS>MOLECULE
ASD01200180
  55   57    0    0    0
SMALL
NO_CHARGES


@<TRIPOS>ATOM
   1 C1            -0.0171     1.3855     0.0060 C.ar    
   2 N2             0.0021    -0.0041     0.0020 N.am    
   3 C3            -1.1504    -0.6943     0.1110 C.2     
   4 C4            -1.1435    -2.1964    -0.0102 C.3     
   5 S5            -2.8340    -2.8261     0.1804 S.3     
   6 C6            -2.6233    -4.6195     0.0068 C.3     
   7 N7            -3.8236    -5.3191     0.4834 N.am    
   8 C8            -4.3249    -6.0105    -0.5573 C.2     
   9 C9            -3.4923    -5.8015    -1.7463 C.2     
  10 C10           -2.4825    -4.9890    -1.4516 C.2     
  11 C11           -3.7435    -6.4162    -3.0991 C.3     
  12 C12           -1.4019    -4.5242    -2.3936 C.3     
  13 O13           -5.3217    -6.7060    -0.5173 O.2     
  14 C14           -4.3738    -5.2727     1.8404 C.3     
  15 C15           -5.3587    -4.1368     1.9445 C.ar    
  16 C16           -6.6941    -4.3529     1.6588 C.ar    
  17 C17           -7.5989    -3.3133     1.7535 C.ar    
  18 C18           -7.1666    -2.0517     2.1357 C.ar    
  19 C19           -5.8261    -1.8375     2.4219 C.ar    
  20 C20           -4.9262    -2.8817     2.3311 C.ar    
  21 O21           -8.0547    -1.0272     2.2292 O.3     
  22 C22           -7.5388     0.2442     2.6284 C.3     
  23 O23           -2.1929    -0.1065     0.3067 O.2     
  24 N24           -1.1791     2.0227     0.0192 N.ar    
  25 C25           -1.2460     3.3377     0.0235 C.ar    
  26 C26           -0.0812     4.1065     0.0137 C.ar    
  27 C27            1.1625     3.4579    -0.0003 C.ar    
  28 C28            1.1850     2.0886     0.0019 C.ar    
  29 C29           -0.1570     5.5806     0.0175 C.2     
  30 N30           -1.3571     6.1937     0.0306 N.am    
  31 O31            0.8634     6.2418     0.0089 O.2     
  32 H32            0.8449    -0.4772    -0.0793 H       
  33 H33           -0.7583    -2.4800    -0.9896 H       
  34 H34           -0.5079    -2.6207     0.7670 H       
  35 H35           -1.7482    -4.9507     0.5659 H       
  36 H36           -4.6380    -7.0377    -3.0553 H       
  37 H37           -3.8858    -5.6262    -3.8364 H       
  38 H38           -2.8886    -7.0295    -3.3839 H       
  39 H39           -1.5671    -4.9596    -3.3792 H       
  40 H40           -1.4273    -3.4371    -2.4677 H       
  41 H41           -0.4296    -4.8400    -2.0153 H       
  42 H42           -4.8793    -6.2131     2.0598 H       
  43 H43           -3.5653    -5.1193     2.5552 H       
  44 H44           -7.0301    -5.3351     1.3609 H       
  45 H45           -8.6419    -3.4825     1.5299 H       
  46 H46           -5.4871    -0.8562     2.7197 H       
  47 H47           -3.8826    -2.7155     2.5538 H       
  48 H48           -7.0854     0.1585     3.6160 H       
  49 H49           -6.7870     0.5728     1.9108 H       
  50 H50           -8.3503     0.9710     2.6630 H       
  51 H51           -2.2096     3.8252     0.0343 H       
  52 H52            2.0813     4.0254    -0.0081 H       
  53 H53            2.1261     1.5589    -0.0083 H       
  54 H54           -2.1711     5.6662     0.0374 H       
  55 H55           -1.4069     7.1624     0.0331 H       
@<TRIPOS>BOND
   1    1    2 1
   2    1   24 ar
   3    1   28 ar
   4    2    3 am
   5    2   32 1
   6    3    4 1
   7    3   23 2
   8    4    5 1
   9    4   33 1
  10    4   34 1
  11    5    6 1
  12    6    7 1
  13    6   10 1
  14    6   35 1
  15    7    8 am
  16    7   14 1
  17    8    9 1
  18    8   13 2
  19    9   10 2
  20    9   11 1
  21   10   12 1
  22   11   36 1
  23   11   37 1
  24   11   38 1
  25   12   39 1
  26   12   40 1
  27   12   41 1
  28   14   15 1
  29   14   42 1
  30   14   43 1
  31   15   16 ar
  32   15   20 ar
  33   16   17 ar
  34   16   44 1
  35   17   18 ar
  36   17   45 1
  37   18   19 ar
  38   18   21 1
  39   19   20 ar
  40   19   46 1
  41   20   47 1
  42   21   22 1
  43   22   48 1
  44   22   49 1
  45   22   50 1
  46   24   25 ar
  47   25   26 ar
  48   25   51 1
  49   26   27 ar
  50   26   29 1
  51   27   28 ar
  52   27   52 1
  53   28   53 1
  54   29   30 am
  55   29   31 2
  56   30   54 1
  57   30   55 1

#	End of record

