#	Name: ASD01140281
#	Creating user name:	WinNT
#	Creation time:	15. 06. 2019 19:00

#	Modifying user name:	WinNT
#	Modification time:	15. 06. 2019 19:00

#	Program:	/corina/corina34_cracker 3.40 0067  02.08.2006

@<TRIPOS>MOLECULE
ASD01140281
  31   32    0    0    0
SMALL
NO_CHARGES


@<TRIPOS>ATOM
   1 C1            -0.0170     1.3995     0.0097 C.ar    
   2 C2             0.0021    -0.0041     0.0020 C.ar    
   3 C3             1.2125    -0.6745    -0.0131 C.ar    
   4 C4             2.4020     0.0398    -0.0207 C.ar    
   5 C5             2.3847     1.4313    -0.0126 C.ar    
   6 C6             1.1877     2.1094     0.0020 C.ar    
   7 C7            -1.3019     2.1222     0.0198 C.2     
   8 C8            -1.3183     3.5840     0.0278 C.2     
   9 C9            -2.4961     4.2465     0.0370 C.2     
  10 C10           -2.5126     5.7157     0.0450 C.ar    
  11 C11           -1.3305     7.8081     0.0451 C.ar    
  12 C12           -1.3094     6.4318     0.0374 C.ar    
  13 C13           -3.7316     6.4046     0.0546 C.ar    
  14 C14           -3.7413     7.7810     0.0622 C.ar    
  15 C15           -2.5437     8.4872     0.0599 C.ar    
  16 O16           -2.5589     9.8444     0.0674 O.3     
  17 O17           -2.3499     1.5013     0.0214 O.2     
  18 O18           -1.1621    -0.7008     0.0098 O.3     
  19 O19            3.5872    -0.6213    -0.0355 O.3     
  20 H20            1.2313    -1.7543    -0.0188 H       
  21 H21            3.3144     1.9809    -0.0181 H       
  22 H22            1.1785     3.1893     0.0076 H       
  23 H23           -0.3891     4.1345     0.0264 H       
  24 H24           -3.4253     3.6961     0.0384 H       
  25 H25           -0.4030     8.3614     0.0396 H       
  26 H26           -0.3665     5.9053     0.0259 H       
  27 H27           -4.6624     5.8570     0.0556 H       
  28 H28           -4.6810     8.3133     0.0695 H       
  29 H29           -2.5714    10.2425    -0.8138 H       
  30 H30           -1.5083    -0.8980    -0.8712 H       
  31 H31            3.9222    -0.8081    -0.9232 H       
@<TRIPOS>BOND
   1    1    2 ar
   2    1    6 ar
   3    1    7 1
   4    2    3 ar
   5    2   18 1
   6    3    4 ar
   7    3   20 1
   8    4    5 ar
   9    4   19 1
  10    5    6 ar
  11    5   21 1
  12    6   22 1
  13    7    8 1
  14    7   17 2
  15    8    9 2
  16    8   23 1
  17    9   10 1
  18    9   24 1
  19   10   13 ar
  20   10   12 ar
  21   11   12 ar
  22   11   15 ar
  23   11   25 1
  24   12   26 1
  25   13   14 ar
  26   13   27 1
  27   14   15 ar
  28   14   28 1
  29   15   16 1
  30   16   29 1
  31   18   30 1
  32   19   31 1

#	End of record

