#	Name: ASD08178108
#	Creating user name:	WinNT
#	Creation time:	15. 06. 2019 21:18

#	Modifying user name:	WinNT
#	Modification time:	15. 06. 2019 21:18

#	Program:	/corina/corina34_cracker 3.40 0067  02.08.2006

@<TRIPOS>MOLECULE
ASD08178108
  60   63    0    0    0
SMALL
NO_CHARGES


@<TRIPOS>ATOM
   1 C1            -0.0184     1.5028     0.0103 C.2     
   2 C2             0.0021    -0.0041     0.0020 C.3     
   3 C3             0.0221    -0.5218     1.4416 C.3     
   4 C4             0.0429    -2.0516     1.4332 C.3     
   5 C5             0.0630    -2.5693     2.8728 C.3     
   6 C6             0.0834    -4.0761     2.8645 C.2     
   7 N7             1.1396    -4.8258     2.8513 N.2     
   8 N8             0.9467    -6.0734     2.8463 N.2     
   9 C9            -0.2824    -6.4936     2.8547 C.2     
  10 S10           -1.3267    -5.1359     2.8788 S.3     
  11 N11           -0.6838    -7.8252     2.8506 N.am    
  12 N12            1.0171     2.2809     0.0046 N.2     
  13 C13            0.2391    -8.8073     2.8374 C.2     
  14 O14            1.4197    -8.5298     2.8290 O.2     
  15 C15           -0.1960   -10.2501     2.8329 C.3     
  16 C16           -0.9267   -10.5505     1.5496 C.ar    
  17 N17            0.7904     3.5228     0.0134 N.2     
  18 C18           -0.4495     3.9094     0.0274 C.2     
  19 S19           -1.4568     2.5237     0.0218 S.3     
  20 C20           -0.8881   -11.1737    -0.7626 C.ar    
  21 C21           -2.3065   -10.4777     1.5067 C.ar    
  22 C22           -2.9775   -10.7531     0.3298 C.ar    
  23 C23           -2.2690   -11.1010    -0.8048 C.ar    
  24 C24           -0.2168   -10.8932     0.4143 C.ar    
  25 N25           -0.8870     5.2295     0.0390 N.am    
  26 C26            0.0089     6.2364     0.0358 C.2     
  27 O27            1.1967     5.9912     0.0228 O.2     
  28 C28           -0.4651     7.6668     0.0485 C.3     
  29 C29           -1.1803     7.9476     1.3449 C.ar    
  30 C30           -2.5564     7.8372     1.4127 C.ar    
  31 C31           -3.2129     8.0950     2.6030 C.ar    
  32 C32           -2.4915     8.4631     3.7247 C.ar    
  33 C33           -1.1154     8.5730     3.6556 C.ar    
  34 C34           -0.4595     8.3099     2.4675 C.ar    
  35 O35            0.9524   -11.0942     2.9360 O.3     
  36 Cl36           0.0028   -11.6042    -2.1890 Cl      
  37 O37            0.6579     8.5419    -0.0751 O.3     
  38 Cl38          -4.9413     7.9572     2.6888 Cl      
  39 H39           -0.8875    -0.3767    -0.5057 H       
  40 H40            0.8922    -0.3525    -0.5218 H       
  41 H41            0.9118    -0.1491     1.9494 H       
  42 H42           -0.8680    -0.1733     1.9655 H       
  43 H43           -0.8467    -2.4242     0.9255 H       
  44 H44            0.9330    -2.4000     0.9094 H       
  45 H45            0.9526    -2.1967     3.3806 H       
  46 H46           -0.8271    -2.2209     3.3967 H       
  47 H47           -1.6281    -8.0470     2.8573 H       
  48 H48           -0.8581   -10.4325     3.6793 H       
  49 H49           -2.8605   -10.2058     2.3930 H       
  50 H50           -4.0555   -10.6967     0.2971 H       
  51 H51           -2.7933   -11.3158    -1.7242 H       
  52 H52            0.8612   -10.9494     0.4478 H       
  53 H53           -1.8369     5.4256     0.0495 H       
  54 H54           -1.1471     7.8310    -0.7857 H       
  55 H55           -3.1191     7.5502     0.5367 H       
  56 H56           -3.0034     8.6647     4.6540 H       
  57 H57           -0.5522     8.8604     4.5311 H       
  58 H58            0.6157     8.3959     2.4140 H       
  59 H59            1.5867   -10.9852     2.2143 H       
  60 H60            1.3079     8.4504     0.6350 H       
@<TRIPOS>BOND
   1    1    2 1
   2    1   12 2
   3    1   19 1
   4    2    3 1
   5    2   39 1
   6    2   40 1
   7    3    4 1
   8    3   41 1
   9    3   42 1
  10    4    5 1
  11    4   43 1
  12    4   44 1
  13    5    6 1
  14    5   45 1
  15    5   46 1
  16    6    7 2
  17    6   10 1
  18    7    8 1
  19    8    9 2
  20    9   10 1
  21    9   11 1
  22   11   13 am
  23   11   47 1
  24   12   17 1
  25   13   14 2
  26   13   15 1
  27   15   16 1
  28   15   35 1
  29   15   48 1
  30   16   21 ar
  31   16   24 ar
  32   17   18 2
  33   18   19 1
  34   18   25 1
  35   20   24 ar
  36   20   36 1
  37   20   23 ar
  38   21   22 ar
  39   21   49 1
  40   22   23 ar
  41   22   50 1
  42   23   51 1
  43   24   52 1
  44   25   26 am
  45   25   53 1
  46   26   27 2
  47   26   28 1
  48   28   29 1
  49   28   37 1
  50   28   54 1
  51   29   30 ar
  52   29   34 ar
  53   30   31 ar
  54   30   55 1
  55   31   32 ar
  56   31   38 1
  57   32   33 ar
  58   32   56 1
  59   33   34 ar
  60   33   57 1
  61   34   58 1
  62   35   59 1
  63   37   60 1

#	End of record

