#	Name: ASD01209254
#	Creating user name:	WinNT
#	Creation time:	15. 06. 2019 19:11

#	Modifying user name:	WinNT
#	Modification time:	15. 06. 2019 19:11

#	Program:	/corina/corina34_cracker 3.40 0067  02.08.2006

@<TRIPOS>MOLECULE
ASD01209254
  73   75    0    0    0
SMALL
NO_CHARGES


@<TRIPOS>ATOM
   1 O1             2.1631     5.5235     1.2822 O.3     
   2 O2             4.1092     7.1915     1.8676 O.3     
   3 C3             0.3712     5.8070    -9.3093 C.ar    
   4 C4             1.6136     6.2509    -9.7373 C.ar    
   5 C5             2.5230     6.7665    -8.8245 C.ar    
   6 C6             2.1930     6.8398    -7.4813 C.ar    
   7 C7             0.9441     6.3943    -7.0465 C.ar    
   8 C8             0.0308     5.8819    -7.9685 C.ar    
   9 O9             3.7391     7.1996    -9.2490 O.3     
  10 C10            0.5874     6.4705    -5.6140 C.2     
  11 N11            1.4690     6.9708    -4.7258 N.am    
  12 O12           -0.5010     6.0819    -5.2371 O.2     
  13 C13            1.1338     7.0425    -3.3794 C.2     
  14 P14            3.1706     6.6290     0.6866 P.3     
  15 O15            4.0136     6.0138    -0.3629 O.2     
  16 C16            2.2104     8.0017    -0.0324 C.3     
  17 N17            1.9053     7.5046    -2.4461 N.2     
  18 S18           -0.3590     6.5407    -2.7142 S.3     
  19 C19            0.1871     7.0105    -1.1065 C.2     
  20 C20            1.4249     7.4993    -1.2162 C.2     
  21 O21           -0.5157     5.3030   -10.2073 O.3     
  22 C22           -1.7368     4.7741    -9.6865 C.3     
  23 C23           -2.3092     3.7503   -10.6688 C.3     
  24 O24           -2.6703     4.4075   -11.8852 O.3     
  25 C25           -3.2186     3.5360   -12.8761 C.3     
  26 C26           -2.7423     5.9105    -9.4906 C.3     
  27 C27            4.8131     6.3949    -9.0356 C.ar    
  28 C28            6.0805     6.8116    -9.4169 C.ar    
  29 C29            7.1706     5.9918    -9.1983 C.ar    
  30 C30            6.9996     4.7568    -8.6006 C.ar    
  31 C31            5.7377     4.3391    -8.2197 C.ar    
  32 C32            4.6450     5.1574    -8.4308 C.ar    
  33 S33            8.3921     3.7131    -8.3244 S.o2    
  34 O34            7.8484     2.4003    -8.3082 O.2     
  35 O35            9.3277     4.1064    -9.3190 O.2     
  36 C36            8.9850     4.1768    -6.6739 C.3     
  37 C37            5.0603     6.3797     2.5593 C.3     
  38 C38            5.7790     7.2230     3.6145 C.3     
  39 C39            2.6063     4.2764     1.8211 C.3     
  40 C40            1.3976     3.4678     2.2965 C.3     
  41 Br41          -0.8078     6.8550     0.4941 Br      
  42 H42            1.8742     6.1948   -10.7839 H       
  43 H43            2.9013     7.2408    -6.7715 H       
  44 H44           -0.9369     5.5361    -7.6362 H       
  45 H45            2.3375     7.2809    -5.0265 H       
  46 H46            1.5249     8.3973     0.7171 H       
  47 H47            2.8900     8.7904    -0.3555 H       
  48 H48           -1.5440     4.2904    -8.7289 H       
  49 H49           -1.5589     2.9875   -10.8769 H       
  50 H50           -3.1918     3.2823   -10.2328 H       
  51 H51           -4.1201     3.0637   -12.4859 H       
  52 H52           -3.4668     4.1109   -13.7684 H       
  53 H53           -2.4872     2.7688   -13.1300 H       
  54 H54           -2.3345     6.6398    -8.7907 H       
  55 H55           -2.9351     6.3941   -10.4482 H       
  56 H56           -3.6737     5.5070    -9.0933 H       
  57 H57            6.2145     7.7759    -9.8844 H       
  58 H58            8.1573     6.3157    -9.4949 H       
  59 H59            5.6068     3.3738    -7.7534 H       
  60 H60            3.6596     4.8307    -8.1331 H       
  61 H61            8.1956     4.0041    -5.9424 H       
  62 H62            9.8559     3.5734    -6.4179 H       
  63 H63            9.2598     5.2316    -6.6696 H       
  64 H64            4.5454     5.5510     3.0455 H       
  65 H65            5.7887     5.9883     1.8491 H       
  66 H66            6.5045     6.6038     4.1421 H       
  67 H67            6.2939     8.0516     3.1284 H       
  68 H68            5.0506     7.6143     4.3247 H       
  69 H69            3.1382     3.7167     1.0518 H       
  70 H70            3.2737     4.4611     2.6629 H       
  71 H71            0.8657     4.0276     3.0658 H       
  72 H72            0.7302     3.2832     1.4547 H       
  73 H73            1.7357     2.5166     2.7076 H       
@<TRIPOS>BOND
   1    1   39 1
   2    1   14 1
   3    2   37 1
   4    2   14 1
   5    3    4 ar
   6    3   21 1
   7    3    8 ar
   8    4    5 ar
   9    4   42 1
  10    5    6 ar
  11    5    9 1
  12    6    7 ar
  13    6   43 1
  14    7    8 ar
  15    7   10 1
  16    8   44 1
  17    9   27 1
  18   10   11 am
  19   10   12 2
  20   11   13 1
  21   11   45 1
  22   13   17 2
  23   13   18 1
  24   14   15 2
  25   14   16 1
  26   16   20 1
  27   16   46 1
  28   16   47 1
  29   17   20 1
  30   18   19 1
  31   19   20 2
  32   19   41 1
  33   21   22 1
  34   22   23 1
  35   22   26 1
  36   22   48 1
  37   23   24 1
  38   23   49 1
  39   23   50 1
  40   24   25 1
  41   25   51 1
  42   25   52 1
  43   25   53 1
  44   26   54 1
  45   26   55 1
  46   26   56 1
  47   27   28 ar
  48   27   32 ar
  49   28   29 ar
  50   28   57 1
  51   29   30 ar
  52   29   58 1
  53   30   31 ar
  54   30   33 1
  55   31   32 ar
  56   31   59 1
  57   32   60 1
  58   33   34 2
  59   33   35 2
  60   33   36 1
  61   36   61 1
  62   36   62 1
  63   36   63 1
  64   37   38 1
  65   37   64 1
  66   37   65 1
  67   38   66 1
  68   38   67 1
  69   38   68 1
  70   39   40 1
  71   39   69 1
  72   39   70 1
  73   40   71 1
  74   40   72 1
  75   40   73 1

#	End of record

