#	Name: ASD05143019
#	Creating user name:	WinNT
#	Creation time:	15. 06. 2019 20:57

#	Modifying user name:	WinNT
#	Modification time:	15. 06. 2019 20:57

#	Program:	/corina/corina34_cracker 3.40 0067  02.08.2006

@<TRIPOS>MOLECULE
ASD05143019
 146  149    0    0    0
SMALL
NO_CHARGES


@<TRIPOS>ATOM
   1 C1            -2.0931     5.4484     7.5658 C.2     
   2 C2            -1.6060     4.7166     8.7898 C.3     
   3 N3            -1.2064     5.9796     6.7009 N.am    
   4 O4            -3.2829     5.5549     7.3563 O.2     
   5 C5            -1.6799     6.6910     5.5110 C.3     
   6 C6            -2.5148     5.7426     4.6483 C.3     
   7 C7            -2.5266     7.8647     5.9311 C.2     
   8 C8            -1.6239     4.6169     4.1191 C.3     
   9 C9            -2.4589     3.6684     3.2565 C.3     
  10 N10           -1.6058     2.5905     2.7498 N.pl3   
  11 C11           -2.1399     1.6116     1.9456 C.2     
  12 N12           -1.3393     0.6001     1.4701 N.pl3   
  13 N13           -3.4051     1.6426     1.6340 N.2     
  14 O14           -3.0177     7.8922     7.0397 O.2     
  15 N15           -2.7382     8.8838     5.0749 N.am    
  16 C16           -3.5614    10.0248     5.4833 C.3     
  17 C17           -2.6577    11.2174     5.8024 C.3     
  18 C18           -1.5003    10.7578     6.6911 C.3     
  19 C19           -0.3607    10.2831     5.8270 C.2     
  20 O20           -0.5650     9.5476     4.8846 O.2     
  21 N21            0.9070    10.6970     6.1245 N.am    
  22 C22            1.9688    10.1803     5.2311 C.3     
  23 C23            2.1173    11.1341     4.0440 C.3     
  24 C24            2.7788    10.3968     2.8778 C.3     
  25 C25            3.7363    11.3440     2.1521 C.3     
  26 N26            3.6824    11.0587     0.7042 N.am    
  27 C27            5.1396    11.1284     2.6574 C.2     
  28 N28            5.5291    11.6834     3.8222 N.am    
  29 O29            5.9184    10.4554     2.0160 O.2     
  30 C30            2.8553    11.8427    -0.0398 C.2     
  31 O31            2.2124    12.7276     0.4842 O.2     
  32 C32            2.7487    11.5978    -1.5229 C.3     
  33 N33            1.5334    12.2779    -2.0267 N.am    
  34 C34            3.9835    12.1636    -2.2272 C.3     
  35 C35            0.4797    11.4569    -2.3135 C.2     
  36 O36            0.5713    10.2574    -2.1596 O.2     
  37 C37           -0.7988    12.0701    -2.8241 C.3     
  38 N38           -1.9252    11.1792    -2.4814 N.am    
  39 C39           -1.0088    13.4370    -2.1697 C.3     
  40 C40           -3.0289    11.7706    -1.9469 C.2     
  41 O41           -3.0578    12.9696    -1.7664 O.2     
  42 C42           -4.2142    10.9140    -1.5833 C.3     
  43 C43            3.9330    11.8098    -3.6912 C.2     
  44 C44            3.2333    12.5511    -4.7432 C.ar    
  45 C45            3.4692    11.8467    -5.9377 C.ar    
  46 N46            4.2546    10.7611    -5.6208 N.pl3   
  47 C47            4.5256    10.7588    -4.2796 C.2     
  48 C48            2.4567    13.7114    -4.7603 C.ar    
  49 C49            1.9292    14.1571    -5.9392 C.ar    
  50 C50            2.1587    13.4652    -7.1207 C.ar    
  51 C51            2.9225    12.3189    -7.1267 C.ar    
  52 N52           -4.7979    11.4227    -0.3211 N.am    
  53 C53           -3.7611     9.4653    -1.3920 C.3     
  54 C54           -4.9595     8.5978    -1.1051 C.ar    
  55 C55           -5.9900     8.5207    -2.0252 C.ar    
  56 C56           -7.0897     7.7283    -1.7692 C.ar    
  57 C57           -7.1615     7.0031    -0.5781 C.ar    
  58 C58           -6.1180     7.0855     0.3460 C.ar    
  59 C59           -5.0218     7.8777     0.0748 C.ar    
  60 C60           -4.5013    10.3924     4.3640 C.2     
  61 N61           -3.9861    10.8731     3.1992 N.am    
  62 O62           -5.6995    10.2616     4.4989 O.2     
  63 C63           -4.9554    11.2165     2.1396 C.3     
  64 C64           -5.1768    12.7302     2.1183 C.3     
  65 C65           -4.4029    10.7682     0.8112 C.2     
  66 C66           -5.8379    13.1674     3.4270 C.3     
  67 N67           -6.0505    14.6208     3.4066 N.3     
  68 O68           -3.6218     9.8426     0.7483 O.2     
  69 C69           -1.0162    13.2781    -0.6480 C.3     
  70 C70           -1.3730    14.6161     0.0027 C.3     
  71 N71           -1.3800    14.4640     1.4598 N.pl3   
  72 C72           -1.6758    15.5408     2.2619 C.2     
  73 N73           -1.9649    16.7602     1.6966 N.pl3   
  74 N74           -1.6821    15.4055     3.5583 N.2     
  75 C75           -8.3003     6.1788    -0.3055 C.1     
  76 N76           -9.2037     5.5249    -0.0891 N.1     
  77 H77           -0.5162     4.7198     8.8054 H       
  78 H78           -1.9837     5.2126     9.6839 H       
  79 H79           -1.9660     3.6880     8.7655 H       
  80 H80           -0.2547     5.8910     6.8663 H       
  81 H81           -0.8248     7.0471     4.9363 H       
  82 H82           -3.3188     5.3177     5.2492 H       
  83 H83           -2.9403     6.2938     3.8097 H       
  84 H84           -0.8199     5.0418     3.5182 H       
  85 H85           -1.1984     4.0656     4.9577 H       
  86 H86           -3.2629     3.2435     3.8574 H       
  87 H87           -2.8844     4.2196     2.4179 H       
  88 H88           -0.6643     2.5675     2.9817 H       
  89 H89           -0.3977     0.5770     1.7020 H       
  90 H90           -1.7161    -0.0906     0.9027 H       
  91 H91           -3.7819     0.9519     1.0666 H       
  92 H92           -2.3454     8.8618     4.1882 H       
  93 H93           -4.1378     9.7583     6.3692 H       
  94 H94           -2.2616    11.6313     4.8752 H       
  95 H95           -3.2348    11.9812     6.3237 H       
  96 H96           -1.1648    11.5900     7.3099 H       
  97 H97           -1.8356     9.9415     7.3309 H       
  98 H98            1.0981    11.2885     6.8691 H       
  99 H99            2.9110    10.1256     5.7764 H       
 100 H100           1.6936     9.1888     4.8714 H       
 101 H101           1.1334    11.4895     3.7380 H       
 102 H102           2.7361    11.9829     4.3351 H       
 103 H103           3.3345     9.5398     3.2583 H       
 104 H104           2.0120    10.0532     2.1835 H       
 105 H105           3.4356    12.3761     2.3324 H       
 106 H106           4.2090    10.3490     0.3041 H       
 107 H107           4.9062    12.2217     4.3352 H       
 108 H108           6.4323    11.5446     4.1475 H       
 109 H109           2.6742    10.5270    -1.7127 H       
 110 H110           1.4887    13.2396    -2.1452 H       
 111 H111           4.0004    13.2478    -2.1158 H       
 112 H112           4.8828    11.7385    -1.7814 H       
 113 H113          -0.7412    12.1862    -3.9064 H       
 114 H114          -1.8811    10.2215    -2.6292 H       
 115 H115          -0.2003    14.1074    -2.4611 H       
 116 H116          -1.9617    13.8535    -2.4962 H       
 117 H117          -4.9593    10.9648    -2.3773 H       
 118 H118           4.5717    10.0988    -6.2545 H       
 119 H119           5.1214    10.0169    -3.7687 H       
 120 H120           2.2734    14.2544    -3.8449 H       
 121 H121           1.3286    15.0546    -5.9519 H       
 122 H122           1.7346    13.8298    -8.0447 H       
 123 H123           3.0955    11.7880    -8.0511 H       
 124 H124          -5.4173    12.1689    -0.2997 H       
 125 H125          -3.2685     9.1158    -2.2994 H       
 126 H126          -3.0640     9.4100    -0.5559 H       
 127 H127          -5.9333     9.0825    -2.9459 H       
 128 H128          -7.8935     7.6693    -2.4881 H       
 129 H129          -6.1674     6.5275     1.2694 H       
 130 H130          -4.2139     7.9425     0.7887 H       
 131 H131          -3.0310    10.9846     3.0720 H       
 132 H132          -5.9019    10.7116     2.3329 H       
 133 H133          -4.2176    13.2362     2.0091 H       
 134 H134          -5.8228    12.9912     1.2800 H       
 135 H135          -6.7972    12.6614     3.5363 H       
 136 H136          -5.1920    12.9065     4.2653 H       
 137 H137          -6.5933    14.8956     2.6016 H       
 138 H138          -6.4864    14.9346     4.2608 H       
 139 H139          -1.7545    12.5280    -0.3646 H       
 140 H140          -0.0291    12.9619    -0.3109 H       
 141 H141          -0.6347    15.3663    -0.2807 H       
 142 H142          -2.3601    14.9324    -0.3344 H       
 143 H143          -1.1761    13.6037     1.8586 H       
 144 H144          -1.9602    16.8609     0.7319 H       
 145 H145          -2.1735    17.5199     2.2626 H       
 146 H146          -1.8907    16.1651     4.1242 H       
@<TRIPOS>BOND
   1    1    2 1
   2    1    3 am
   3    1    4 2
   4    2   77 1
   5    2   78 1
   6    2   79 1
   7    3    5 1
   8    3   80 1
   9    5    6 1
  10    5    7 1
  11    5   81 1
  12    6    8 1
  13    6   82 1
  14    6   83 1
  15    7   14 2
  16    7   15 am
  17    8    9 1
  18    8   84 1
  19    8   85 1
  20    9   10 1
  21    9   86 1
  22    9   87 1
  23   10   11 1
  24   10   88 1
  25   11   12 1
  26   11   13 2
  27   12   89 1
  28   12   90 1
  29   13   91 1
  30   15   16 1
  31   15   92 1
  32   16   17 1
  33   16   60 1
  34   16   93 1
  35   17   18 1
  36   17   94 1
  37   17   95 1
  38   18   19 1
  39   18   96 1
  40   18   97 1
  41   19   20 2
  42   19   21 am
  43   21   22 1
  44   21   98 1
  45   22   23 1
  46   22   99 1
  47   22  100 1
  48   23   24 1
  49   23  101 1
  50   23  102 1
  51   24   25 1
  52   24  103 1
  53   24  104 1
  54   25   26 1
  55   25   27 1
  56   25  105 1
  57   26   30 am
  58   26  106 1
  59   27   28 am
  60   27   29 2
  61   28  107 1
  62   28  108 1
  63   30   31 2
  64   30   32 1
  65   32   33 1
  66   32   34 1
  67   32  109 1
  68   33   35 am
  69   33  110 1
  70   34   43 1
  71   34  111 1
  72   34  112 1
  73   35   36 2
  74   35   37 1
  75   37   38 1
  76   37   39 1
  77   37  113 1
  78   38   40 am
  79   38  114 1
  80   39   69 1
  81   39  115 1
  82   39  116 1
  83   40   41 2
  84   40   42 1
  85   42   52 1
  86   42   53 1
  87   42  117 1
  88   43   44 1
  89   43   47 2
  90   44   45 ar
  91   44   48 ar
  92   45   46 1
  93   45   51 ar
  94   46   47 1
  95   46  118 1
  96   47  119 1
  97   48   49 ar
  98   48  120 1
  99   49   50 ar
 100   49  121 1
 101   50   51 ar
 102   50  122 1
 103   51  123 1
 104   52   65 am
 105   52  124 1
 106   53   54 1
 107   53  125 1
 108   53  126 1
 109   54   55 ar
 110   54   59 ar
 111   55   56 ar
 112   55  127 1
 113   56   57 ar
 114   56  128 1
 115   57   58 ar
 116   57   75 1
 117   58   59 ar
 118   58  129 1
 119   59  130 1
 120   60   61 am
 121   60   62 2
 122   61   63 1
 123   61  131 1
 124   63   64 1
 125   63   65 1
 126   63  132 1
 127   64   66 1
 128   64  133 1
 129   64  134 1
 130   65   68 2
 131   66   67 1
 132   66  135 1
 133   66  136 1
 134   67  137 1
 135   67  138 1
 136   69   70 1
 137   69  139 1
 138   69  140 1
 139   70   71 1
 140   70  141 1
 141   70  142 1
 142   71   72 1
 143   71  143 1
 144   72   73 1
 145   72   74 2
 146   73  144 1
 147   73  145 1
 148   74  146 1
 149   75   76 3

#	End of record

