#	Name: ASD01410058
#	Creating user name:	WinNT
#	Creation time:	15. 06. 2019 19:16

#	Modifying user name:	WinNT
#	Modification time:	15. 06. 2019 19:16

#	Program:	/corina/corina34_cracker 3.40 0067  02.08.2006

@<TRIPOS>MOLECULE
ASD01410058
  37   38    0    0    0
SMALL
NO_CHARGES


@<TRIPOS>ATOM
   1 C1            -0.0184     1.4358    -0.0000 C.ar    
   2 C2             0.0072     0.0527     0.0039 C.ar    
   3 C3            -1.1751    -0.6616     0.0188 C.ar    
   4 C4            -2.3909     0.0097     0.0300 C.ar    
   5 C5            -2.4149     1.3985     0.0260 C.ar    
   6 C6            -1.2292     2.1084     0.0168 C.ar    
   7 N7            -3.5881    -0.7109     0.0446 N.pl3   
   8 C8            -4.8699    -0.0016     0.0564 C.3     
   9 C9            -5.3245     0.2378    -1.3603 C.2     
  10 N10           -6.4865     0.8787    -1.5960 N.am    
  11 C11           -6.8526     1.1995    -2.9007 C.ar    
  12 C12           -5.8841     1.5530    -3.8301 C.ar    
  13 C13           -6.2492     1.8707    -5.1231 C.ar    
  14 C14           -7.5810     1.8402    -5.5035 C.ar    
  15 C15           -8.5566     1.4917    -4.5947 C.ar    
  16 C16           -8.2023     1.1615    -3.2842 C.ar    
  17 C17           -9.2404     0.7873    -2.3072 C.2     
  18 O18          -10.5427     0.8652    -2.6448 O.3     
  19 O19           -8.9220     0.4087    -1.1974 O.2     
  20 O20           -4.6448    -0.1462    -2.2884 O.2     
  21 Cl21          -1.2574     3.8442     0.0125 Cl      
  22 Cl22           1.4694     2.3300    -0.0188 Cl      
  23 C23           -3.5614    -2.1756     0.0483 C.3     
  24 H24            0.9526    -0.4693    -0.0052 H       
  25 H25           -1.1541    -1.7414     0.0215 H       
  26 H26           -3.3589     1.9229     0.0343 H       
  27 H27           -5.6132    -0.6030     0.5798 H       
  28 H28           -4.7514     0.9544     0.5664 H       
  29 H29           -7.0678     1.1166    -0.8567 H       
  30 H30           -4.8437     1.5798    -3.5413 H       
  31 H31           -5.4918     2.1451    -5.8425 H       
  32 H32           -7.8560     2.0912    -6.5173 H       
  33 H33           -9.5935     1.4698    -4.8962 H       
  34 H34          -11.1870     0.6093    -1.9706 H       
  35 H35           -3.5439    -2.5362     1.0768 H       
  36 H36           -4.4501    -2.5565    -0.4551 H       
  37 H37           -2.6705    -2.5241    -0.4741 H       
@<TRIPOS>BOND
   1    1    2 ar
   2    1   22 1
   3    1    6 ar
   4    2    3 ar
   5    2   24 1
   6    3    4 ar
   7    3   25 1
   8    4    5 ar
   9    4    7 1
  10    5    6 ar
  11    5   26 1
  12    6   21 1
  13    7    8 1
  14    7   23 1
  15    8    9 1
  16    8   27 1
  17    8   28 1
  18    9   10 am
  19    9   20 2
  20   10   11 1
  21   10   29 1
  22   11   12 ar
  23   11   16 ar
  24   12   13 ar
  25   12   30 1
  26   13   14 ar
  27   13   31 1
  28   14   15 ar
  29   14   32 1
  30   15   16 ar
  31   15   33 1
  32   16   17 1
  33   17   18 1
  34   17   19 2
  35   18   34 1
  36   23   35 1
  37   23   36 1
  38   23   37 1

#	End of record

