#	Name: ASD03330523
#	Creating user name:	WinNT
#	Creation time:	15. 06. 2019 20:37

#	Modifying user name:	WinNT
#	Modification time:	15. 06. 2019 20:37

#	Program:	/corina/corina34_cracker 3.40 0067  02.08.2006

@<TRIPOS>MOLECULE
ASD03330523
  61   63    0    0    0
SMALL
NO_CHARGES


@<TRIPOS>ATOM
   1 C1             0.1476    -0.4401     0.9946 C.3     
   2 N2             0.1579    -1.8247     0.5040 N.4     
   3 C3             0.5783    -1.8544    -0.9078 C.3     
   4 C4             1.8604    -1.0730    -1.0326 C.2     
   5 N5             2.3096    -0.2081    -0.0851 N.pl3   
   6 C6             1.5870     0.0647     1.1608 C.3     
   7 C7             2.7670    -1.0699    -2.0412 C.2     
   8 N8             3.7567    -0.2126    -1.7010 N.2     
   9 C9             3.4868     0.3075    -0.5244 C.2     
  10 C10            4.3241     1.2894     0.1994 C.ar    
  11 C11            2.6885    -1.8586    -3.2836 C.2     
  12 O12            1.7429    -2.5991    -3.4751 O.2     
  13 C13            3.5865    -2.5434    -5.4427 C.3     
  14 N14            3.6646    -1.7593    -4.2077 N.am    
  15 C15            2.7384    -1.7921    -6.4710 C.3     
  16 C16            3.3045    -0.3845    -6.6683 C.3     
  17 C17            2.7667    -2.5445    -7.8029 C.3     
  18 C18            1.2959    -1.6961    -5.9700 C.3     
  19 C19            4.9736    -2.7535    -5.9929 C.2     
  20 N20            5.2319    -3.8149    -6.7823 N.am    
  21 O21            5.8576    -1.9674    -5.7253 O.2     
  22 C22            6.6027    -4.0828    -7.2242 C.3     
  23 C23            5.3364     1.9761    -0.4715 C.ar    
  24 C24            4.1009     1.5367     1.5541 C.ar    
  25 C25            4.8852     2.4536     2.2234 C.ar    
  26 C26            5.8909     3.1274     1.5537 C.ar    
  27 C27            6.1138     2.8906     0.2090 C.ar    
  28 C28            1.0946    -2.6203     1.3086 C.3     
  29 C29           -1.1907    -2.3946     0.6234 C.3     
  30 H30           -0.3782     0.1933     0.2802 H       
  31 H31           -0.3634    -0.4006     1.9566 H       
  32 H32            0.7438    -2.8853    -1.2207 H       
  33 H33           -0.1919    -1.3995    -1.5306 H       
  34 H34            1.5811     1.1371     1.3560 H       
  35 H35            2.0677    -0.4582     1.9875 H       
  36 H36            3.1292    -3.5100    -5.2312 H       
  37 H37            4.4187    -1.1687    -4.0550 H       
  38 H38            4.3321    -0.4529    -7.0252 H       
  39 H39            2.7003     0.1507    -7.4009 H       
  40 H40            3.2844     0.1516    -5.7194 H       
  41 H41            2.3295    -3.5342    -7.6705 H       
  42 H42            2.1928    -1.9903    -8.5456 H       
  43 H43            3.7978    -2.6452    -8.1415 H       
  44 H44            1.2758    -1.1601    -5.0211 H       
  45 H45            0.6917    -1.1609    -6.7025 H       
  46 H46            0.8926    -2.6989    -5.8294 H       
  47 H47            4.5101    -4.4014    -7.0578 H       
  48 H48            6.6149    -4.9753    -7.8499 H       
  49 H49            6.9725    -3.2324    -7.7971 H       
  50 H50            7.2407    -4.2401    -6.3545 H       
  51 H51            5.5113     1.7921    -1.5213 H       
  52 H52            3.3157     1.0117     2.0778 H       
  53 H53            4.7135     2.6459     3.2722 H       
  54 H54            6.5017     3.8447     2.0818 H       
  55 H55            6.9007     3.4196    -0.3081 H       
  56 H56            0.7800    -2.6062     2.3522 H       
  57 H57            1.1033    -3.6480     0.9456 H       
  58 H58            2.0956    -2.1970     1.2252 H       
  59 H59           -1.8888    -1.8035     0.0306 H       
  60 H60           -1.1845    -3.4221     0.2597 H       
  61 H61           -1.4996    -2.3810     1.6687 H       
@<TRIPOS>BOND
   1    1    2 1
   2    1    6 1
   3    1   30 1
   4    1   31 1
   5    2    3 1
   6    2   28 1
   7    2   29 1
   8    3    4 1
   9    3   32 1
  10    3   33 1
  11    4    5 1
  12    4    7 2
  13    5    6 1
  14    5    9 1
  15    6   34 1
  16    6   35 1
  17    7    8 1
  18    7   11 1
  19    8    9 2
  20    9   10 1
  21   10   23 ar
  22   10   24 ar
  23   11   12 2
  24   11   14 am
  25   13   14 1
  26   13   15 1
  27   13   19 1
  28   13   36 1
  29   14   37 1
  30   15   16 1
  31   15   17 1
  32   15   18 1
  33   16   38 1
  34   16   39 1
  35   16   40 1
  36   17   41 1
  37   17   42 1
  38   17   43 1
  39   18   44 1
  40   18   45 1
  41   18   46 1
  42   19   20 am
  43   19   21 2
  44   20   22 1
  45   20   47 1
  46   22   48 1
  47   22   49 1
  48   22   50 1
  49   23   27 ar
  50   23   51 1
  51   24   25 ar
  52   24   52 1
  53   25   26 ar
  54   25   53 1
  55   26   27 ar
  56   26   54 1
  57   27   55 1
  58   28   56 1
  59   28   57 1
  60   28   58 1
  61   29   59 1
  62   29   60 1
  63   29   61 1

#	End of record

