#	Name: ASD01910618
#	Creating user name:	WinNT
#	Creation time:	15. 06. 2019 19:56

#	Modifying user name:	WinNT
#	Modification time:	15. 06. 2019 19:56

#	Program:	/corina/corina34_cracker 3.40 0067  02.08.2006

@<TRIPOS>MOLECULE
ASD01910618
  43   46    0    0    0
SMALL
NO_CHARGES


@<TRIPOS>ATOM
   1 C1            -0.6257     2.3136     0.1998 C.ar    
   2 C2            -0.7522     0.9347     0.2672 C.ar    
   3 C3             0.3767     0.1313     0.3102 C.ar    
   4 C4             1.6322     0.7004     0.2855 C.ar    
   5 C5             1.7654     2.0886     0.2172 C.ar    
   6 C6             0.6250     2.8931     0.1746 C.ar    
   7 C7             3.1082     2.7041     0.1905 C.2     
   8 N8             3.3838     3.9951     0.1273 N.2     
   9 C9             4.7233     4.0772     0.1270 C.2     
  10 N10            5.1922     2.8659     0.1883 N.2     
  11 O11            4.2857     2.0613     0.2315 O.3     
  12 C12            5.5370     5.3442     0.0661 C.3     
  13 C13            6.4164     5.4470     1.3144 C.3     
  14 C14            7.2188     6.7494     1.2694 C.3     
  15 C15            8.1282     6.7418     0.0366 C.3     
  16 N16            7.3057     6.4982    -1.1563 N.am    
  17 C17            6.4273     5.3207    -1.1803 C.3     
  18 C18            7.3561     7.3389    -2.2085 C.2     
  19 C19            6.6244     7.0133    -3.4499 C.ar    
  20 O20            8.0036     8.3653    -2.1360 O.2     
  21 C21            6.6146     5.7035    -3.9475 C.ar    
  22 C22            5.9152     5.4498    -5.1121 C.ar    
  23 C23            5.2514     6.4903    -5.7452 C.ar    
  24 N24            5.2791     7.7162    -5.2518 N.ar    
  25 C25            5.9272     8.0040    -4.1425 C.ar    
  26 F26            4.5663     6.2469    -6.8839 F       
  27 F27           -1.9802     0.3719     0.2916 F       
  28 H28           -1.5085     2.9347     0.1624 H       
  29 H29            0.2725    -0.9423     0.3634 H       
  30 H30            2.5110     0.0736     0.3194 H       
  31 H31            0.7225     3.9674     0.1213 H       
  32 H32            4.8686     6.2040     0.0202 H       
  33 H33            5.7866     5.4391     2.2040 H       
  34 H34            7.1012     4.5995     1.3470 H       
  35 H35            6.5350     7.5962     1.2118 H       
  36 H36            7.8274     6.8331     2.1698 H       
  37 H37            8.6279     7.7062    -0.0548 H       
  38 H38            8.8715     5.9508     0.1357 H       
  39 H39            7.0319     4.4138    -1.1804 H       
  40 H40            5.8048     5.3474    -2.0746 H       
  41 H41            7.1407     4.9123    -3.4341 H       
  42 H42            5.8860     4.4523    -5.5250 H       
  43 H43            5.9267     9.0177    -3.7701 H       
@<TRIPOS>BOND
   1    1    2 ar
   2    1    6 ar
   3    1   28 1
   4    2    3 ar
   5    2   27 1
   6    3    4 ar
   7    3   29 1
   8    4    5 ar
   9    4   30 1
  10    5    6 ar
  11    5    7 1
  12    6   31 1
  13    7    8 2
  14    7   11 1
  15    8    9 1
  16    9   10 2
  17    9   12 1
  18   10   11 1
  19   12   13 1
  20   12   17 1
  21   12   32 1
  22   13   14 1
  23   13   33 1
  24   13   34 1
  25   14   15 1
  26   14   35 1
  27   14   36 1
  28   15   16 1
  29   15   37 1
  30   15   38 1
  31   16   17 1
  32   16   18 am
  33   17   39 1
  34   17   40 1
  35   18   19 1
  36   18   20 2
  37   19   21 ar
  38   19   25 ar
  39   21   22 ar
  40   21   41 1
  41   22   23 ar
  42   22   42 1
  43   23   24 ar
  44   23   26 1
  45   24   25 ar
  46   25   43 1

#	End of record

