#	Name: ASD01028357
#	Creating user name:	WinNT
#	Creation time:	15. 06. 2019 18:57

#	Modifying user name:	WinNT
#	Modification time:	15. 06. 2019 18:57

#	Program:	/corina/corina34_cracker 3.40 0067  02.08.2006

@<TRIPOS>MOLECULE
ASD01028357
  49   53    0    0    0
SMALL
NO_CHARGES


@<TRIPOS>ATOM
   1 C1            -0.0171     1.4105     0.0098 C.ar    
   2 C2             0.0021    -0.0041     0.0020 C.ar    
   3 C3             1.2172     2.1062     0.0017 C.ar    
   4 C4             2.3840     1.3600    -0.0135 C.ar    
   5 C5             2.3156    -0.0268    -0.0203 C.ar    
   6 N6             1.1664    -0.6615    -0.0123 N.ar    
   7 N7             1.2559     3.4929     0.0084 N.pl3   
   8 C8             2.5445     4.1898    -0.0001 C.3     
   9 C9             2.3796     5.5584     0.6089 C.2     
  10 N10            3.2032     6.1337     1.5121 N.pl3   
  11 C11            2.6665     7.3705     1.7809 C.2     
  12 N12            1.5720     7.4808     1.0459 N.2     
  13 N13            1.4149     6.4068     0.3537 N.2     
  14 N14            4.3779     5.7270     2.1480 N.2     
  15 C15            4.9799     6.5198     3.0067 C.2     
  16 C16            4.4537     7.7949     3.3040 C.2     
  17 C17            3.3124     8.2190     2.7000 C.2     
  18 C18            6.2271     6.0683     3.6715 C.ar    
  19 C19           -1.2223    -0.6977     0.0101 C.ar    
  20 C20            6.7559     4.8110     3.3862 C.ar    
  21 C21            7.9166     4.3963     4.0071 C.ar    
  22 C22            8.5546     5.2260     4.9115 C.ar    
  23 C23            8.0341     6.4751     5.1985 C.ar    
  24 C24            6.8771     6.9023     4.5791 C.ar    
  25 C25           -2.3811     0.0331     0.0251 C.ar    
  26 C26           -2.3227     1.4307     0.0320 C.ar    
  27 N27           -1.1775     2.0678     0.0299 N.ar    
  28 O28           -3.5841    -0.5981     0.0329 O.3     
  29 C29           -4.7501     0.2280     0.0486 C.3     
  30 C30            3.0394     4.3291    -1.4412 C.3     
  31 H31            3.3437     1.8552    -0.0203 H       
  32 H32            3.2319    -0.5984    -0.0326 H       
  33 H33            0.4298     4.0012     0.0188 H       
  34 H34            3.2700     3.6192     0.5796 H       
  35 H35            4.9589     8.4349     4.0122 H       
  36 H36            2.9052     9.1940     2.9236 H       
  37 H37           -1.2479    -1.7774     0.0042 H       
  38 H38            6.2582     4.1621     2.6807 H       
  39 H39            8.3274     3.4221     3.7867 H       
  40 H40            9.4623     4.8973     5.3956 H       
  41 H41            8.5362     7.1187     5.9057 H       
  42 H42            6.4716     7.8777     4.8039 H       
  43 H43           -3.2420     1.9974     0.0439 H       
  44 H44           -4.7411     0.8522     0.9420 H       
  45 H45           -4.7579     0.8623    -0.8378 H       
  46 H46           -5.6406    -0.4006     0.0534 H       
  47 H47            2.3139     4.8997    -2.0209 H       
  48 H48            3.9982     4.8476    -1.4475 H       
  49 H49            3.1588     3.3393    -1.8816 H       
@<TRIPOS>BOND
   1    1    2 ar
   2    1    3 ar
   3    1   27 ar
   4    2   19 ar
   5    2    6 ar
   6    3    4 ar
   7    3    7 1
   8    4    5 ar
   9    4   31 1
  10    5    6 ar
  11    5   32 1
  12    7    8 1
  13    7   33 1
  14    8    9 1
  15    8   30 1
  16    8   34 1
  17    9   10 1
  18    9   13 2
  19   10   11 1
  20   10   14 1
  21   11   12 2
  22   11   17 1
  23   12   13 1
  24   14   15 2
  25   15   16 1
  26   15   18 1
  27   16   17 2
  28   16   35 1
  29   17   36 1
  30   18   20 ar
  31   18   24 ar
  32   19   25 ar
  33   19   37 1
  34   20   21 ar
  35   20   38 1
  36   21   22 ar
  37   21   39 1
  38   22   23 ar
  39   22   40 1
  40   23   24 ar
  41   23   41 1
  42   24   42 1
  43   25   26 ar
  44   25   28 1
  45   26   27 ar
  46   26   43 1
  47   28   29 1
  48   29   44 1
  49   29   45 1
  50   29   46 1
  51   30   47 1
  52   30   48 1
  53   30   49 1

#	End of record

