#	Name: ASD09080125
#	Creating user name:	WinNT
#	Creation time:	15. 06. 2019 21:20

#	Modifying user name:	WinNT
#	Modification time:	15. 06. 2019 21:20

#	Program:	/corina/corina34_cracker 3.40 0067  02.08.2006

@<TRIPOS>MOLECULE
ASD09080125
  70   73    0    0    0
SMALL
NO_CHARGES


@<TRIPOS>ATOM
   1 C1            -0.0167     1.3799     0.0096 C.ar    
   2 C2             0.0021    -0.0041     0.0020 C.ar    
   3 C3             1.2064    -0.6807    -0.0132 C.ar    
   4 C4             2.4033     0.0323    -0.0208 C.ar    
   5 C5             2.3791     1.4253    -0.0131 C.ar    
   6 C6             1.1698     2.0928     0.0021 C.ar    
   7 Cl7            1.1380     3.8285     0.0112 Cl      
   8 Cl8           -1.4902    -0.8910     0.0121 Cl      
   9 C9             3.6997    -0.6896    -0.0366 C.ar    
  10 C10            4.8969     0.0232    -0.0443 C.ar    
  11 C11            3.7242    -2.0828    -0.0381 C.ar    
  12 C12            4.9328    -2.7491    -0.0529 C.ar    
  13 C13            6.1183    -2.0365    -0.0658 C.ar    
  14 C14            6.0998    -0.6534    -0.0590 C.ar    
  15 C15            7.4348    -2.7697    -0.0809 C.3     
  16 C16            7.8642    -3.0170    -1.5284 C.3     
  17 C17            9.1352    -3.8687    -1.5449 C.3     
  18 C18            9.5646    -4.1160    -2.9924 C.3     
  19 O19            8.8786    -5.1197    -0.9038 O.3     
  20 O20            9.8212    -2.8649    -3.6335 O.3     
  21 C21           10.8164    -4.9549    -3.0087 C.2     
  22 O22           11.8480    -4.4925    -3.4352 O.2     
  23 O23           10.7854    -6.2157    -2.5493 O.3     
  24 C24           11.8018    -8.3484    -2.0427 C.ar    
  25 C25           11.4206    -9.3756    -2.8856 C.ar    
  26 C26           11.2183   -10.6460    -2.3796 C.ar    
  27 C27           11.3977   -10.8893    -1.0307 C.ar    
  28 C28           11.7798    -9.8623    -0.1879 C.ar    
  29 C29           11.9808    -8.5916    -0.6937 C.ar    
  30 C30           12.0284    -6.9649    -2.5954 C.3     
  31 N31            8.1273    -1.7344    -2.1857 N.am    
  32 C32           11.4755     3.5911    -4.3377 C.ar    
  33 C33           10.7195     4.6995    -4.0047 C.ar    
  34 C34            9.8460     4.6443    -2.9347 C.ar    
  35 C35            9.7286     3.4807    -2.1977 C.ar    
  36 C36           10.4846     2.3723    -2.5306 C.ar    
  37 C37           11.3580     2.4275    -3.6006 C.ar    
  38 C38           10.3566     1.1039    -1.7271 C.3     
  39 O39            9.3192     0.2679    -2.3044 O.3     
  40 C40            9.0774    -0.9109    -1.7004 C.2     
  41 O41            9.7158    -1.2322    -0.7177 O.2     
  42 H42           -0.9602     1.9054     0.0170 H       
  43 H43            1.2200    -1.7606    -0.0187 H       
  44 H44            3.3044     1.9824    -0.0186 H       
  45 H45            4.8836     1.1031    -0.0390 H       
  46 H46            2.7992    -2.6402    -0.0274 H       
  47 H47            4.9530    -3.8289    -0.0541 H       
  48 H48            7.0283    -0.1019    -0.0695 H       
  49 H49            8.1909    -2.1691     0.4249 H       
  50 H50            7.3250    -3.7243     0.4337 H       
  51 H51            7.0690    -3.5407    -2.0589 H       
  52 H52            9.9304    -3.3449    -1.0144 H       
  53 H53            8.7694    -4.6397    -3.5229 H       
  54 H54            8.1804    -5.6408    -1.3234 H       
  55 H55           10.5194    -2.3438    -3.2139 H       
  56 H56           11.2805    -9.1855    -3.9395 H       
  57 H57           10.9198   -11.4483    -3.0380 H       
  58 H58           11.2390   -11.8816    -0.6352 H       
  59 H59           11.9193   -10.0523     0.8661 H       
  60 H60           12.2786    -7.7891    -0.0352 H       
  61 H61           12.3707    -7.0376    -3.6277 H       
  62 H62           12.7830    -6.4538    -1.9976 H       
  63 H63            7.6177    -1.4779    -2.9701 H       
  64 H64           12.1546     3.6328    -5.1764 H       
  65 H65           10.8115     5.6086    -4.5803 H       
  66 H66            9.2559     5.5104    -2.6741 H       
  67 H67            9.0467     3.4378    -1.3613 H       
  68 H68           11.9484     1.5615    -3.8610 H       
  69 H69           11.3053     0.5674    -1.7413 H       
  70 H70           10.0940     1.3504    -0.6983 H       
@<TRIPOS>BOND
   1    1    2 ar
   2    1    6 ar
   3    1   42 1
   4    2    3 ar
   5    2    8 1
   6    3    4 ar
   7    3   43 1
   8    4    5 ar
   9    4    9 1
  10    5    6 ar
  11    5   44 1
  12    6    7 1
  13    9   10 ar
  14    9   11 ar
  15   10   14 ar
  16   10   45 1
  17   11   12 ar
  18   11   46 1
  19   12   13 ar
  20   12   47 1
  21   13   14 ar
  22   13   15 1
  23   14   48 1
  24   15   16 1
  25   15   49 1
  26   15   50 1
  27   16   17 1
  28   16   31 1
  29   16   51 1
  30   17   18 1
  31   17   19 1
  32   17   52 1
  33   18   20 1
  34   18   21 1
  35   18   53 1
  36   19   54 1
  37   20   55 1
  38   21   22 2
  39   21   23 1
  40   23   30 1
  41   24   25 ar
  42   24   29 ar
  43   24   30 1
  44   25   26 ar
  45   25   56 1
  46   26   27 ar
  47   26   57 1
  48   27   28 ar
  49   27   58 1
  50   28   29 ar
  51   28   59 1
  52   29   60 1
  53   30   61 1
  54   30   62 1
  55   31   40 am
  56   31   63 1
  57   32   33 ar
  58   32   37 ar
  59   32   64 1
  60   33   34 ar
  61   33   65 1
  62   34   35 ar
  63   34   66 1
  64   35   36 ar
  65   35   67 1
  66   36   37 ar
  67   36   38 1
  68   37   68 1
  69   38   39 1
  70   38   69 1
  71   38   70 1
  72   39   40 1
  73   40   41 2

#	End of record

