#	Name: ASD01916455
#	Creating user name:	WinNT
#	Creation time:	15. 06. 2019 20:07

#	Modifying user name:	WinNT
#	Modification time:	15. 06. 2019 20:07

#	Program:	/corina/corina34_cracker 3.40 0067  02.08.2006

@<TRIPOS>MOLECULE
ASD01916455
  40   44    0    0    0
SMALL
NO_CHARGES


@<TRIPOS>ATOM
   1 C1            -0.0171     1.4087     0.0098 C.ar    
   2 C2             0.0021    -0.0041     0.0020 C.ar    
   3 N3            -1.1272    -0.7016    -0.0204 N.ar    
   4 C4            -2.2985    -0.1124    -0.0151 C.ar    
   5 C5            -2.4091     1.2888     0.0098 C.ar    
   6 C6            -1.2520     2.0678     0.0193 C.ar    
   7 N7             1.1490     2.0869     0.0023 N.2     
   8 C8             2.3236     1.4843     0.0164 C.2     
   9 N9             2.4189     0.1225     0.0893 N.am    
  10 C10            1.3173    -0.6619     0.0305 C.2     
  11 N11            3.5643     2.0550    -0.1142 N.pl3   
  12 C12            4.5776     1.0732     0.3381 C.3     
  13 C13            3.8313    -0.2625     0.2644 C.3     
  14 C14           -3.6987     1.9111     0.0254 C.1     
  15 C15           -4.7560     2.4214     0.0382 C.1     
  16 C16           -6.0455     3.0438     0.0538 C.ar    
  17 N17           -6.1382     4.3699     0.0773 N.ar    
  18 C18           -7.3054     4.9795     0.0923 C.ar    
  19 C19           -8.4850     4.2571     0.0839 C.ar    
  20 C20           -8.4354     2.8698     0.0593 C.ar    
  21 C21           -7.1976     2.2531     0.0383 C.ar    
  22 O22            1.4123    -1.8751     0.0017 O.2     
  23 C23            4.3263     3.2211    -0.5809 C.3     
  24 C24            5.6962     2.6910    -1.0556 C.3     
  25 C25            5.6626     1.1710    -0.7550 C.3     
  26 H26           -3.1949    -0.7147    -0.0306 H       
  27 H27           -1.3072     3.1463     0.0343 H       
  28 H28            4.9572     1.2859     1.3375 H       
  29 H29            3.9618    -0.8241     1.1894 H       
  30 H30            4.1764    -0.8459    -0.5892 H       
  31 H31           -7.3421     6.0587     0.1117 H       
  32 H32           -9.4365     4.7679     0.0966 H       
  33 H33           -9.3435     2.2852     0.0528 H       
  34 H34           -7.1225     1.1759     0.0190 H       
  35 H35            3.8045     3.7013    -1.4087 H       
  36 H36            4.4627     3.9294     0.2363 H       
  37 H37            5.8194     2.8632    -2.1248 H       
  38 H38            6.5016     3.1698    -0.4985 H       
  39 H39            6.6260     0.8296    -0.3763 H       
  40 H40            5.3716     0.6072    -1.6413 H       
@<TRIPOS>BOND
   1    1    2 ar
   2    1    7 1
   3    1    6 ar
   4    2    3 ar
   5    2   10 1
   6    3    4 ar
   7    4    5 ar
   8    4   26 1
   9    5    6 ar
  10    5   14 1
  11    6   27 1
  12    7    8 2
  13    8    9 1
  14    8   11 1
  15    9   10 am
  16    9   13 1
  17   10   22 2
  18   11   12 1
  19   11   23 1
  20   12   13 1
  21   12   25 1
  22   12   28 1
  23   13   29 1
  24   13   30 1
  25   14   15 3
  26   15   16 1
  27   16   17 ar
  28   16   21 ar
  29   17   18 ar
  30   18   19 ar
  31   18   31 1
  32   19   20 ar
  33   19   32 1
  34   20   21 ar
  35   20   33 1
  36   21   34 1
  37   23   24 1
  38   23   35 1
  39   23   36 1
  40   24   25 1
  41   24   37 1
  42   24   38 1
  43   25   39 1
  44   25   40 1

#	End of record

