#	Name: ASD02770029
#	Creating user name:	WinNT
#	Creation time:	15. 06. 2019 20:26

#	Modifying user name:	WinNT
#	Modification time:	15. 06. 2019 20:26

#	Program:	/corina/corina34_cracker 3.40 0067  02.08.2006

@<TRIPOS>MOLECULE
ASD02770029
  30   31    0    0    0
SMALL
NO_CHARGES


@<TRIPOS>ATOM
   1 C1            -0.0180     1.4766     0.0102 C.2     
   2 C2             0.0021    -0.0041     0.0020 C.ar    
   3 C3             1.2113    -0.7064    -0.0133 C.ar    
   4 C4             1.1836    -2.0874    -0.0200 C.ar    
   5 N5             0.0392    -2.7416    -0.0121 N.ar    
   6 C6            -1.1225    -2.1188     0.0024 C.ar    
   7 C7            -1.1876    -0.7391     0.0153 C.ar    
   8 O8             1.0260     2.0985     0.0035 O.2     
   9 N9            -1.1942     2.1346     0.0193 N.am    
  10 C10           -1.2130     3.5194     0.0269 C.2     
  11 C11           -2.3520     4.2843     0.0365 C.2     
  12 C12           -2.0734     5.7038     0.0437 C.2     
  13 C13           -0.7774     5.9808     0.0397 C.2     
  14 S14            0.1756     4.5076     0.0331 S.3     
  15 C15           -3.7054     3.7235     0.0391 C.2     
  16 O16           -3.8641     2.5171     0.0326 O.2     
  17 N17           -4.7747     4.5439     0.0487 N.am    
  18 C18           -6.0198     4.0280     0.0510 C.2     
  19 O19           -6.1784     2.8229     0.0445 O.2     
  20 N20           -7.0892     4.8483     0.0606 N.am    
  21 H21            2.1526    -0.1770    -0.0202 H       
  22 H22            2.1122    -2.6388    -0.0322 H       
  23 H23           -2.0358    -2.6952     0.0080 H       
  24 H24           -2.1429    -0.2355     0.0318 H       
  25 H25           -2.0276     1.6382     0.0206 H       
  26 H26           -2.8435     6.4610     0.0513 H       
  27 H27           -0.3638     6.9785     0.0436 H       
  28 H28           -4.6482     5.5056     0.0538 H       
  29 H29           -6.9626     5.8100     0.0658 H       
  30 H30           -7.9853     4.4770     0.0623 H       
@<TRIPOS>BOND
   1    1    2 1
   2    1    8 2
   3    1    9 am
   4    2    3 ar
   5    2    7 ar
   6    3    4 ar
   7    3   21 1
   8    4    5 ar
   9    4   22 1
  10    5    6 ar
  11    6    7 ar
  12    6   23 1
  13    7   24 1
  14    9   10 1
  15    9   25 1
  16   10   11 2
  17   10   14 1
  18   11   12 1
  19   11   15 1
  20   12   13 2
  21   12   26 1
  22   13   14 1
  23   13   27 1
  24   15   16 2
  25   15   17 am
  26   17   18 am
  27   17   28 1
  28   18   19 2
  29   18   20 am
  30   20   29 1
  31   20   30 1

#	End of record

