#	Name: ASD03240965
#	Creating user name:	WinNT
#	Creation time:	15. 06. 2019 20:35

#	Modifying user name:	WinNT
#	Modification time:	15. 06. 2019 20:35

#	Program:	/corina/corina34_cracker 3.40 0067  02.08.2006

@<TRIPOS>MOLECULE
ASD03240965
  64   70    0    0    0
SMALL
NO_CHARGES


@<TRIPOS>ATOM
   1 C1             1.0080     1.8952     0.7925 C.3     
   2 C2             2.3027     1.7112    -0.0166 C.3     
   3 C3             1.5490     0.6473    -0.8319 C.3     
   4 C4             0.6513     0.4515     0.4012 C.3     
   5 O5             1.2286     2.0708     2.1934 O.3     
   6 C6             2.3853    -0.5605    -1.1677 C.ar    
   7 C7             2.1370    -1.2690    -2.3298 C.ar    
   8 C8             2.8995    -2.3754    -2.6430 C.ar    
   9 C9             3.9227    -2.7792    -1.7850 C.ar    
  10 C10            4.1682    -2.0607    -0.6147 C.ar    
  11 C11            3.4021    -0.9529    -0.3153 C.ar    
  12 N12            8.1733    -4.9556    -2.1694 N.pl3   
  13 C13            8.9018    -6.0713    -2.4842 C.2     
  14 N14            8.3180    -7.2044    -2.9100 N.2     
  15 C15            7.0225    -7.3097    -3.0492 C.2     
  16 C16            6.1753    -6.1589    -2.7324 C.ar    
  17 N17            4.8521    -6.2147    -2.8580 N.ar    
  18 C18            4.1212    -5.1506    -2.5614 C.ar    
  19 C19            4.7445    -3.9659    -2.1149 C.ar    
  20 N20            6.0649    -3.9114    -1.9899 N.ar    
  21 C21            6.7977    -4.9730    -2.2860 C.ar    
  22 C22           10.2360    -5.7514    -2.2702 C.2     
  23 C23           10.2894    -4.4364    -1.8260 C.2     
  24 N24            9.0698    -3.9574    -1.7690 N.2     
  25 C25            2.6466    -5.2043    -2.6986 C.ar    
  26 C26            2.0697    -5.7580    -3.8409 C.ar    
  27 C27            0.6960    -5.8052    -3.9630 C.ar    
  28 C28           -0.1084    -5.3046    -2.9550 C.ar    
  29 C29            0.4582    -4.7537    -1.8196 C.ar    
  30 C30            1.8306    -4.7065    -1.6834 C.ar    
  31 C31           11.4144    -6.6667    -2.4815 C.3     
  32 C32           11.5447    -3.6814    -1.4723 C.3     
  33 C33            0.0604     2.9419     0.2031 C.3     
  34 C34           -1.3197     3.0879     0.8472 C.3     
  35 C35           -0.2580     4.1688     1.0599 C.3     
  36 N36            0.8385     1.1924    -1.9964 N.3     
  37 H37            2.5827     2.5896    -0.5982 H       
  38 H38            3.1296     1.3083     0.5682 H       
  39 H39            1.0266    -0.2958     1.1003 H       
  40 H40           -0.4019     0.3128     0.1570 H       
  41 H41            1.8064     1.4029     2.5873 H       
  42 H42            1.3443    -0.9556    -2.9930 H       
  43 H43            2.7044    -2.9279    -3.5502 H       
  44 H44            4.9589    -2.3684     0.0535 H       
  45 H45            3.5940    -0.3931     0.5881 H       
  46 H46            6.5829    -8.2340    -3.3940 H       
  47 H47            2.6967    -6.1488    -4.6286 H       
  48 H48            0.2480    -6.2335    -4.8475 H       
  49 H49           -1.1830    -5.3437    -3.0551 H       
  50 H50           -0.1748    -4.3637    -1.0363 H       
  51 H51            2.2718    -4.2809    -0.7943 H       
  52 H52           11.7765    -6.5627    -3.5043 H       
  53 H53           12.2101    -6.4011    -1.7856 H       
  54 H54           11.1088    -7.6985    -2.3074 H       
  55 H55           11.9257    -3.1743    -2.3588 H       
  56 H56           11.3205    -2.9450    -0.7006 H       
  57 H57           12.2960    -4.3788    -1.1017 H       
  58 H58            0.1303     3.0851    -0.8752 H       
  59 H59           -2.1577     3.3275     0.1927 H       
  60 H60           -1.5526     2.4382     1.6909 H       
  61 H61            0.2076     4.2303     2.0435 H       
  62 H62           -0.3976     5.1196     0.5454 H       
  63 H63            0.4973     0.4520    -2.5910 H       
  64 H64            0.0866     1.8008    -1.7090 H       
@<TRIPOS>BOND
   1    1    2 1
   2    1    4 1
   3    1    5 1
   4    1   33 1
   5    2    3 1
   6    2   37 1
   7    2   38 1
   8    3    4 1
   9    3    6 1
  10    3   36 1
  11    4   39 1
  12    4   40 1
  13    5   41 1
  14    6    7 ar
  15    6   11 ar
  16    7    8 ar
  17    7   42 1
  18    8    9 ar
  19    8   43 1
  20    9   10 ar
  21    9   19 1
  22   10   11 ar
  23   10   44 1
  24   11   45 1
  25   12   13 1
  26   12   21 1
  27   12   24 1
  28   13   14 1
  29   13   22 2
  30   14   15 2
  31   15   16 1
  32   15   46 1
  33   16   17 ar
  34   16   21 ar
  35   17   18 ar
  36   18   19 ar
  37   18   25 1
  38   19   20 ar
  39   20   21 ar
  40   22   23 1
  41   22   31 1
  42   23   24 2
  43   23   32 1
  44   25   26 ar
  45   25   30 ar
  46   26   27 ar
  47   26   47 1
  48   27   28 ar
  49   27   48 1
  50   28   29 ar
  51   28   49 1
  52   29   30 ar
  53   29   50 1
  54   30   51 1
  55   31   52 1
  56   31   53 1
  57   31   54 1
  58   32   55 1
  59   32   56 1
  60   32   57 1
  61   33   34 1
  62   33   35 1
  63   33   58 1
  64   34   35 1
  65   34   59 1
  66   34   60 1
  67   35   61 1
  68   35   62 1
  69   36   63 1
  70   36   64 1

#	End of record

