#	Name: ASD00842830
#	Creating user name:	WinNT
#	Creation time:	15. 06. 2019 18:45

#	Modifying user name:	WinNT
#	Modification time:	15. 06. 2019 18:45

#	Program:	/corina/corina34_cracker 3.40 0067  02.08.2006

@<TRIPOS>MOLECULE
ASD00842830
  90   95    0    0    0
SMALL
NO_CHARGES


@<TRIPOS>ATOM
   1 N1            -0.0142     1.3152     0.0260 N.ar    
   2 C2             0.0027    -0.0071     0.0115 C.ar    
   3 C3             1.2071    -0.6994    -0.0063 C.ar    
   4 C4             2.3932     0.0133    -0.0087 C.ar    
   5 C5             2.3325     1.4001     0.0070 C.ar    
   6 C6             1.1001     2.0220     0.0242 C.ar    
   7 C7             1.2215    -2.2062    -0.0224 C.3     
   8 C8             0.4763    -2.7309    -1.2311 C.2     
   9 N9             2.5989    -2.7051    -0.0122 N.am    
  10 C10            3.4467    -2.3635    -1.0028 C.2     
  11 N11            4.7402    -2.7372    -0.9415 N.am    
  12 O12            3.0445    -1.7183    -1.9516 O.2     
  13 C13            5.2676    -3.4159     0.2500 C.3     
  14 C14            6.4984    -2.6520     0.7484 C.3     
  15 C15            7.5064    -2.5152    -0.3949 C.3     
  16 C16            6.8759    -1.7204    -1.5408 C.3     
  17 C17            5.6481    -2.4789    -2.0674 C.3     
  18 N18            8.7022    -1.8120     0.0884 N.3     
  19 C19            9.7417    -1.7661    -0.9494 C.3     
  20 C20           10.9363    -0.9588    -0.4358 C.3     
  21 N21           11.4506    -1.5783     0.7936 N.3     
  22 C22           10.4111    -1.6242     1.8314 C.3     
  23 C23            9.2165    -2.4314     1.3178 C.3     
  24 H24           11.8173    -2.4998     0.6081 H       
  25 O25            0.7571    -2.5297    -2.3938 O.2     
  26 N26           -0.5550    -3.4610    -0.7740 N.am    
  27 C27            0.4476    -2.7557     1.1539 C.ar    
  28 C28           -0.6005    -3.4959     0.6206 C.ar    
  29 C29            0.6111    -2.6432     2.5162 C.ar    
  30 C30           -0.2762    -3.2728     3.3730 C.ar    
  31 C31           -1.3258    -4.0140     2.8539 C.ar    
  32 C32           -1.4903    -4.1272     1.4866 C.ar    
  33 Cl33          -0.0740    -3.1344     5.0916 Cl      
  34 F34           -2.1922    -4.6287     3.6885 F       
  35 C35           -1.0189    -5.8479    -2.0631 C.ar    
  36 C36            0.1598    -6.0087    -2.7773 C.ar    
  37 C37           -1.6980    -6.9547    -1.5901 C.ar    
  38 C38           -1.2052    -8.2235    -1.8265 C.ar    
  39 C39           -0.0266    -8.3896    -2.5404 C.ar    
  40 C40            0.6562    -7.2812    -3.0162 C.ar    
  41 O41            0.4574    -9.6380    -2.7730 O.3     
  42 O42            0.8270    -4.9201    -3.2426 O.3     
  43 C43           -0.2983   -10.7340    -2.2535 C.3     
  44 C44            2.0335    -5.1603    -3.9697 C.3     
  45 C45            2.6383    -3.8255    -4.4095 C.3     
  46 O46           -1.1672    -0.6942     0.0144 O.3     
  47 C47           -2.3713     0.0751     0.0335 C.3     
  48 C48           -3.5777    -0.8658     0.0340 C.3     
  49 F49           -3.5500    -1.6602    -1.1173 F       
  50 F50           -3.5297    -1.6851     1.1670 F       
  51 S51           -1.6465    -4.2310    -1.7528 S.o2    
  52 O52           -2.8277    -4.4003    -0.9813 O.2     
  53 O53           -1.6227    -3.5456    -2.9974 O.2     
  54 H54            3.3446    -0.4978    -0.0220 H       
  55 H55            3.2396     1.9862     0.0060 H       
  56 H56            1.0473     3.1007     0.0361 H       
  57 H57            2.9008    -3.2813     0.7074 H       
  58 H58            4.5060    -3.4302     1.0297 H       
  59 H59            5.5504    -4.4370    -0.0062 H       
  60 H60            6.1982    -1.6611     1.0892 H       
  61 H61            6.9560    -3.1979     1.5735 H       
  62 H62            7.7875    -3.5060    -0.7518 H       
  63 H63            6.5721    -0.7384    -1.1784 H       
  64 H64            7.6022    -1.6033    -2.3451 H       
  65 H65            5.9645    -3.4222    -2.5124 H       
  66 H66            5.1373    -1.8727    -2.8155 H       
  67 H67           10.0632    -2.7801    -1.1872 H       
  68 H68            9.3405    -1.2920    -1.8452 H       
  69 H69           11.7203    -0.9479    -1.1930 H       
  70 H70           10.6207     0.0627    -0.2238 H       
  71 H71           10.8123    -2.0983     2.7272 H       
  72 H72           10.0896    -0.6102     2.0692 H       
  73 H73            8.4325    -2.4424     2.0749 H       
  74 H74            9.5321    -3.4530     1.1058 H       
  75 H75            1.4307    -2.0648     2.9162 H       
  76 H76           -2.3106    -4.7061     1.0886 H       
  77 H77           -2.6153    -6.8275    -1.0344 H       
  78 H78           -1.7374    -9.0868    -1.4552 H       
  79 H79            1.5733    -7.4084    -3.5722 H       
  80 H80           -0.3696   -10.6448    -1.1695 H       
  81 H81           -1.2989   -10.7226    -2.6857 H       
  82 H82            0.1973   -11.6706    -2.5092 H       
  83 H83            2.7428    -5.6882    -3.3323 H       
  84 H84            1.8135    -5.7667    -4.8484 H       
  85 H85            2.8583    -3.2192    -3.5308 H       
  86 H86            3.5586    -4.0088    -4.9641 H       
  87 H87            1.9290    -3.2977    -5.0469 H       
  88 H88           -2.3928     0.6940     0.9305 H       
  89 H89           -2.4087     0.7134    -0.8493 H       
  90 H90           -4.4962    -0.2790     0.0485 H       
@<TRIPOS>BOND
   1    1    2 ar
   2    1    6 ar
   3    2    3 ar
   4    2   46 1
   5    3    4 ar
   6    3    7 1
   7    4    5 ar
   8    4   54 1
   9    5    6 ar
  10    5   55 1
  11    6   56 1
  12    7    8 1
  13    7    9 1
  14    7   27 1
  15    8   25 2
  16    8   26 am
  17    9   10 am
  18    9   57 1
  19   10   11 am
  20   10   12 2
  21   11   13 1
  22   11   17 1
  23   13   14 1
  24   13   58 1
  25   13   59 1
  26   14   15 1
  27   14   60 1
  28   14   61 1
  29   15   16 1
  30   15   18 1
  31   15   62 1
  32   16   17 1
  33   16   63 1
  34   16   64 1
  35   17   65 1
  36   17   66 1
  37   18   19 1
  38   18   23 1
  39   19   20 1
  40   19   67 1
  41   19   68 1
  42   20   21 1
  43   20   69 1
  44   20   70 1
  45   21   22 1
  46   21   24 1
  47   22   23 1
  48   22   71 1
  49   22   72 1
  50   23   73 1
  51   23   74 1
  52   26   51 am
  53   26   28 1
  54   27   28 ar
  55   27   29 ar
  56   28   32 ar
  57   29   30 ar
  58   29   75 1
  59   30   31 ar
  60   30   33 1
  61   31   32 ar
  62   31   34 1
  63   32   76 1
  64   35   36 ar
  65   35   37 ar
  66   35   51 1
  67   36   42 1
  68   36   40 ar
  69   37   38 ar
  70   37   77 1
  71   38   39 ar
  72   38   78 1
  73   39   40 ar
  74   39   41 1
  75   40   79 1
  76   41   43 1
  77   42   44 1
  78   43   80 1
  79   43   81 1
  80   43   82 1
  81   44   45 1
  82   44   83 1
  83   44   84 1
  84   45   85 1
  85   45   86 1
  86   45   87 1
  87   46   47 1
  88   47   48 1
  89   47   88 1
  90   47   89 1
  91   48   49 1
  92   48   50 1
  93   48   90 1
  94   51   52 2
  95   51   53 2

#	End of record

