#	Name: ASD01900137
#	Creating user name:	WinNT
#	Creation time:	15. 06. 2019 19:51

#	Modifying user name:	WinNT
#	Modification time:	15. 06. 2019 19:51

#	Program:	/corina/corina34_cracker 3.40 0067  02.08.2006

@<TRIPOS>MOLECULE
ASD01900137
  48   51    0    0    0
SMALL
NO_CHARGES


@<TRIPOS>ATOM
   1 N1             0.0051     1.3128    -0.0109 N.ar    
   2 C2             0.1125     0.0026     0.0230 C.ar    
   3 C3            -0.7305    -0.8004    -0.7290 C.ar    
   4 C4            -1.6987    -0.2103    -1.5259 C.ar    
   5 C5            -1.7892     1.1728    -1.5418 C.ar    
   6 C6            -0.9084     1.9175    -0.7607 C.ar    
   7 C7            -0.9924     3.3963    -0.7661 C.2     
   8 N8            -0.1430     4.1223    -0.0125 N.am    
   9 O9            -1.8273     3.9551    -1.4501 O.2     
  10 C10           -0.1585     5.5194    -0.0896 C.ar    
  11 C11           -1.3603     6.1915    -0.2708 C.ar    
  12 C12           -1.3753     7.5708    -0.3464 C.ar    
  13 C13           -0.1880     8.2850    -0.2409 C.ar    
  14 C14            1.0131     7.6122    -0.0597 C.ar    
  15 C15            1.0275     6.2344     0.0211 C.ar    
  16 Cl16          -2.8770     8.4116    -0.5736 Cl      
  17 N17           -0.2027     9.6851    -0.3180 N.am    
  18 C18           -0.0756    10.3484    -1.4740 C.2     
  19 C19           -0.1335    11.8360    -1.2032 C.3     
  20 C20           -0.3181    11.9183     0.3258 C.3     
  21 C21           -0.3507    10.4684     0.7576 C.2     
  22 S22            0.1088     9.6754    -2.9126 S.2     
  23 S23           -0.5300     9.9534     2.2607 S.2     
  24 C24            0.8419    12.6400     0.9620 C.ar    
  25 C25            0.6398    13.8553     1.5890 C.ar    
  26 C26            1.7037    14.5174     2.1725 C.ar    
  27 C27            2.9697    13.9639     2.1294 C.ar    
  28 C28            3.1717    12.7482     1.5032 C.ar    
  29 C29            2.1069    12.0841     0.9235 C.ar    
  30 C30           -1.6371    12.6117     0.6724 C.3     
  31 H31            0.8681    -0.4539     0.6452 H       
  32 H32           -0.6335    -1.8755    -0.6946 H       
  33 H33           -2.3672    -0.8144    -2.1214 H       
  34 H34           -2.5316     1.6661    -2.1515 H       
  35 H35            0.4792     3.6763     0.5832 H       
  36 H36           -2.2828     5.6360    -0.3531 H       
  37 H37            1.9359     8.1674     0.0219 H       
  38 H38            1.9619     5.7116     0.1620 H       
  39 H39            0.7973    12.3172    -1.5037 H       
  40 H40           -0.9827    12.2867    -1.7169 H       
  41 H41           -0.3493    14.2877     1.6226 H       
  42 H42            1.5460    15.4672     2.6617 H       
  43 H43            3.8011    14.4815     2.5847 H       
  44 H44            4.1608    12.3160     1.4693 H       
  45 H45            2.2646    11.1342     0.4342 H       
  46 H46           -2.4670    12.0478     0.2464 H       
  47 H47           -1.7486    12.6598     1.7556 H       
  48 H48           -1.6355    13.6215     0.2621 H       
@<TRIPOS>BOND
   1    1    2 ar
   2    1    6 ar
   3    2    3 ar
   4    2   31 1
   5    3    4 ar
   6    3   32 1
   7    4    5 ar
   8    4   33 1
   9    5    6 ar
  10    5   34 1
  11    6    7 1
  12    7    8 am
  13    7    9 2
  14    8   10 1
  15    8   35 1
  16   10   11 ar
  17   10   15 ar
  18   11   12 ar
  19   11   36 1
  20   12   13 ar
  21   12   16 1
  22   13   14 ar
  23   13   17 1
  24   14   15 ar
  25   14   37 1
  26   15   38 1
  27   17   18 am
  28   17   21 am
  29   18   22 2
  30   18   19 1
  31   19   20 1
  32   19   39 1
  33   19   40 1
  34   20   24 1
  35   20   30 1
  36   20   21 1
  37   21   23 2
  38   24   25 ar
  39   24   29 ar
  40   25   26 ar
  41   25   41 1
  42   26   27 ar
  43   26   42 1
  44   27   28 ar
  45   27   43 1
  46   28   29 ar
  47   28   44 1
  48   29   45 1
  49   30   46 1
  50   30   47 1
  51   30   48 1

#	End of record

