#	Name: ASD00069142
#	Creating user name:	WinNT
#	Creation time:	15. 06. 2019 18:29

#	Modifying user name:	WinNT
#	Modification time:	15. 06. 2019 18:29

#	Program:	/corina/corina34_cracker 3.40 0067  02.08.2006

@<TRIPOS>MOLECULE
ASD00069142
  50   53    0    0    0
SMALL
NO_CHARGES


@<TRIPOS>ATOM
   1 C1            -0.0635     1.2958    -0.5899 C.2     
   2 N2            -0.0206     0.0044    -0.3439 N.2     
   3 C3             1.2312    -0.4330    -0.5257 C.2     
   4 C4             2.0013     0.6320    -0.9012 C.2     
   5 N5             1.1898     1.7136    -0.9410 N.pl3   
   6 C6            -1.2630     2.1481    -0.5071 C.2     
   7 O7            -1.1839     3.3355    -0.7586 O.2     
   8 N8            -2.4476     1.6118    -0.1526 N.am    
   9 C9             1.7009    -1.8298    -0.3499 C.ar    
  10 C10            0.8044    -2.8262     0.0391 C.ar    
  11 C11            1.2473    -4.1251     0.2008 C.ar    
  12 C12            2.5783    -4.4375    -0.0222 C.ar    
  13 C13            3.4708    -3.4507    -0.4079 C.ar    
  14 C14            3.0367    -2.1516    -0.5781 C.ar    
  15 F15            3.0075    -5.7085     0.1374 F       
  16 F16           -0.4935    -2.5213     0.2574 F       
  17 C17           -3.5614     2.4389     0.0386 C.ar    
  18 C18           -4.8458     1.8967     0.0209 C.ar    
  19 C19           -5.9458     2.7223     0.2117 C.ar    
  20 C20           -5.7644     4.0789     0.4186 C.ar    
  21 C21           -4.4899     4.6149     0.4358 C.ar    
  22 C22           -3.3895     3.7988     0.2519 C.ar    
  23 F23           -7.1925     2.2019     0.1949 F       
  24 N24           -5.0260     0.5235    -0.1892 N.3     
  25 C25           -5.7497     0.2734    -1.4422 C.3     
  26 C26           -5.8005    -1.2323    -1.7116 C.3     
  27 C27           -6.5048    -1.9310    -0.5454 C.3     
  28 C28           -5.7592    -1.6149     0.7541 C.3     
  29 C29           -5.7096    -0.0982     0.9521 C.3     
  30 N30           -6.5427    -1.4834    -2.9542 N.3     
  31 H31            3.0580     0.6135    -1.1236 H       
  32 H32            1.4493     2.6184    -1.1757 H       
  33 H33           -2.5286     0.6530    -0.0300 H       
  34 H34            0.5550    -4.8976     0.5017 H       
  35 H35            4.5076    -3.6993    -0.5799 H       
  36 H36            3.7330    -1.3846    -0.8835 H       
  37 H37           -6.6205     4.7204     0.5665 H       
  38 H38           -4.3536     5.6740     0.5977 H       
  39 H39           -2.3955     4.2207     0.2706 H       
  40 H40           -6.7647     0.6619    -1.3592 H       
  41 H41           -5.2361     0.7722    -2.2641 H       
  42 H42           -4.7861    -1.6190    -1.8085 H       
  43 H43           -7.5317    -1.5727    -0.4726 H       
  44 H44           -6.5049    -3.0081    -0.7125 H       
  45 H45           -6.2805    -2.0746     1.5938 H       
  46 H46           -4.7441    -2.0077     0.6961 H       
  47 H47           -5.1669     0.1308     1.8692 H       
  48 H48           -6.7248     0.2921     1.0239 H       
  49 H49           -6.5900    -2.4713    -3.1538 H       
  50 H50           -7.4659    -1.0784    -2.9121 H       
@<TRIPOS>BOND
   1    1    2 2
   2    1    5 1
   3    1    6 1
   4    2    3 1
   5    3    4 2
   6    3    9 1
   7    4    5 1
   8    4   31 1
   9    5   32 1
  10    6    7 2
  11    6    8 am
  12    8   17 1
  13    8   33 1
  14    9   10 ar
  15    9   14 ar
  16   10   11 ar
  17   10   16 1
  18   11   12 ar
  19   11   34 1
  20   12   13 ar
  21   12   15 1
  22   13   14 ar
  23   13   35 1
  24   14   36 1
  25   17   18 ar
  26   17   22 ar
  27   18   19 ar
  28   18   24 1
  29   19   20 ar
  30   19   23 1
  31   20   21 ar
  32   20   37 1
  33   21   22 ar
  34   21   38 1
  35   22   39 1
  36   24   25 1
  37   24   29 1
  38   25   26 1
  39   25   40 1
  40   25   41 1
  41   26   27 1
  42   26   30 1
  43   26   42 1
  44   27   28 1
  45   27   43 1
  46   27   44 1
  47   28   29 1
  48   28   45 1
  49   28   46 1
  50   29   47 1
  51   29   48 1
  52   30   49 1
  53   30   50 1

#	End of record

