#	Name: ASD03731581
#	Creating user name:	WinNT
#	Creation time:	15. 06. 2019 20:46

#	Modifying user name:	WinNT
#	Modification time:	15. 06. 2019 20:46

#	Program:	/corina/corina34_cracker 3.40 0067  02.08.2006

@<TRIPOS>MOLECULE
ASD03731581
  36   37    0    0    0
SMALL
NO_CHARGES


@<TRIPOS>ATOM
   1 C1             0.3751     1.0932     1.9788 C.2     
   2 C2             0.2917    -0.2831     1.4519 C.ar    
   3 C3             1.3748    -0.8362     0.7628 C.ar    
   4 C4             1.2925    -2.1219     0.2723 C.ar    
   5 C5             0.1324    -2.8678     0.4627 C.ar    
   6 C6            -0.9451    -2.3198     1.1473 C.ar    
   7 C7            -0.8676    -1.0378     1.6456 C.ar    
   8 O8             1.3868     1.7471     1.8137 O.2     
   9 N9            -0.6721     1.6269     2.6382 N.am    
  10 S10           -0.5785     3.1710     3.2294 S.o2    
  11 O11           -1.8297     3.3771     3.8707 O.2     
  12 O12            0.6353     3.1904     3.9680 O.2     
  13 C13           -0.4413     4.2140     1.7516 C.3     
  14 F14            2.3382    -2.6584    -0.3941 F       
  15 O15            0.0538    -4.1332    -0.0222 O.3     
  16 C16           -1.1326    -4.7866     0.0893 C.ar    
  17 C17           -2.0867    -4.6702    -0.9116 C.ar    
  18 C18           -3.2916    -5.3354    -0.7966 C.ar    
  19 C19           -3.5479    -6.1174     0.3161 C.ar    
  20 C20           -2.5982    -6.2345     1.3153 C.ar    
  21 C21           -1.3893    -5.5756     1.2012 C.ar    
  22 C22           -4.3281    -5.2093    -1.8833 C.3     
  23 F23           -3.8437    -4.3731    -2.8950 F       
  24 F24           -4.6025    -6.4738    -2.4150 F       
  25 F25           -5.5002    -4.6637    -1.3487 F       
  26 Cl26          -5.0634    -6.9521     0.4584 Cl      
  27 H27            2.2743    -0.2572     0.6146 H       
  28 H28           -1.8434    -2.9014     1.2927 H       
  29 H29           -1.7045    -0.6149     2.1815 H       
  30 H30           -1.4807     1.1067     2.7665 H       
  31 H31           -1.3205     4.0714     1.1233 H       
  32 H32           -0.3738     5.2601     2.0502 H       
  33 H33            0.4530     3.9371     1.1933 H       
  34 H34           -1.8873    -4.0594    -1.7798 H       
  35 H35           -2.8003    -6.8449     2.1830 H       
  36 H36           -0.6464    -5.6708     1.9793 H       
@<TRIPOS>BOND
   1    1    2 1
   2    1    8 2
   3    1    9 am
   4    2    3 ar
   5    2    7 ar
   6    3    4 ar
   7    3   27 1
   8    4    5 ar
   9    4   14 1
  10    5    6 ar
  11    5   15 1
  12    6    7 ar
  13    6   28 1
  14    7   29 1
  15    9   10 am
  16    9   30 1
  17   10   11 2
  18   10   12 2
  19   10   13 1
  20   13   31 1
  21   13   32 1
  22   13   33 1
  23   15   16 1
  24   16   17 ar
  25   16   21 ar
  26   17   18 ar
  27   17   34 1
  28   18   19 ar
  29   18   22 1
  30   19   20 ar
  31   19   26 1
  32   20   21 ar
  33   20   35 1
  34   21   36 1
  35   22   23 1
  36   22   24 1
  37   22   25 1

#	End of record

