#	Name: ASD03900028
#	Creating user name:	WinNT
#	Creation time:	15. 06. 2019 20:47

#	Modifying user name:	WinNT
#	Modification time:	15. 06. 2019 20:47

#	Program:	/corina/corina34_cracker 3.40 0067  02.08.2006

@<TRIPOS>MOLECULE
ASD03900028
  40   42    0    0    0
SMALL
NO_CHARGES


@<TRIPOS>ATOM
   1 C1             0.0494     1.5106     0.7830 C.ar    
   2 C2            -0.4248     1.0536    -0.4381 C.ar    
   3 C3             0.4339     0.9658    -1.5242 C.ar    
   4 C4             1.7585     1.3335    -1.3874 C.ar    
   5 C5             2.2286     1.7887    -0.1695 C.ar    
   6 C6             1.3749     1.8771     0.9145 C.ar    
   7 C7             5.3133     2.4972    -1.8887 C.ar    
   8 C8             4.1333     2.8823    -1.2797 C.ar    
   9 C9             3.6742     2.1887    -0.0230 C.3     
  10 C10            5.7364     3.1314    -3.0407 C.ar    
  11 C11            4.9761     4.1555    -3.5865 C.ar    
  12 C12            3.7927     4.5403    -2.9733 C.ar    
  13 C13            3.3740     3.9029    -1.8214 C.ar    
  14 C14            3.8202     3.1245     1.1492 C.ar    
  15 C15            4.7911     2.8807     2.1224 C.ar    
  16 C16            4.9195     3.7529     3.2054 C.ar    
  17 C17            4.0876     4.8483     3.3069 C.ar    
  18 C18            3.1273     5.0840     2.3387 C.ar    
  19 C19            2.9984     4.2271     1.2602 C.ar    
  20 C20            5.6783     1.7052     2.0072 C.2     
  21 O21            6.5466     1.4172     2.9960 O.3     
  22 O22            5.6248     0.9982     1.0209 O.2     
  23 O23            5.3903     4.7813    -4.7195 O.3     
  24 O24           -1.7281     0.6921    -0.5699 O.3     
  25 H25           -0.6181     1.5841     1.6288 H       
  26 H26            0.0673     0.6100    -2.4757 H       
  27 H27            2.4275     1.2650    -2.2326 H       
  28 H28            1.7444     2.2333     1.8648 H       
  29 H29            5.9071     1.7029    -1.4609 H       
  30 H30            4.2821     1.2995     0.1440 H       
  31 H31            6.6584     2.8306    -3.5159 H       
  32 H32            3.1992     5.3375    -3.3960 H       
  33 H33            2.4526     4.2019    -1.3438 H       
  34 H34            5.6683     3.5700     3.9618 H       
  35 H35            4.1856     5.5235     4.1441 H       
  36 H36            2.4782     5.9431     2.4233 H       
  37 H37            2.2469     4.4168     0.5081 H       
  38 H38            7.1064     0.6380     2.8756 H       
  39 H39            5.0670     4.3737    -5.5346 H       
  40 H40           -2.3117     1.4151    -0.8378 H       
@<TRIPOS>BOND
   1    1    2 ar
   2    1    6 ar
   3    1   25 1
   4    2    3 ar
   5    2   24 1
   6    3    4 ar
   7    3   26 1
   8    4    5 ar
   9    4   27 1
  10    5    6 ar
  11    5    9 1
  12    6   28 1
  13    7    8 ar
  14    7   10 ar
  15    7   29 1
  16    8    9 1
  17    8   13 ar
  18    9   14 1
  19    9   30 1
  20   10   11 ar
  21   10   31 1
  22   11   12 ar
  23   11   23 1
  24   12   13 ar
  25   12   32 1
  26   13   33 1
  27   14   15 ar
  28   14   19 ar
  29   15   16 ar
  30   15   20 1
  31   16   17 ar
  32   16   34 1
  33   17   18 ar
  34   17   35 1
  35   18   19 ar
  36   18   36 1
  37   19   37 1
  38   20   21 1
  39   20   22 2
  40   21   38 1
  41   23   39 1
  42   24   40 1

#	End of record

