#	Name: ASD01410791
#	Creating user name:	WinNT
#	Creation time:	15. 06. 2019 19:18

#	Modifying user name:	WinNT
#	Modification time:	15. 06. 2019 19:18

#	Program:	/corina/corina34_cracker 3.40 0067  02.08.2006

@<TRIPOS>MOLECULE
ASD01410791
  32   33    0    0    0
SMALL
NO_CHARGES


@<TRIPOS>ATOM
   1 N1            -0.0158     1.3129     0.0093 N.ar    
   2 C2             0.0021    -0.0041     0.0020 C.ar    
   3 C3             1.1999    -0.7207    -0.0133 C.ar    
   4 C4             2.3956    -0.0508    -0.0210 C.ar    
   5 C5             2.3689     1.3636    -0.0132 C.ar    
   6 C6             3.5546     2.1119    -0.0214 C.ar    
   7 C7             3.4979     3.4720    -0.0146 C.ar    
   8 C8             2.2685     4.1361     0.0011 C.ar    
   9 C9             1.0868     3.4292     0.0095 C.ar    
  10 C10            1.1179     2.0262     0.0023 C.ar    
  11 O11            3.5718    -0.7253    -0.0354 O.3     
  12 C12           -0.2322     4.1579     0.0269 C.3     
  13 O13            2.2387     5.4941     0.0085 O.3     
  14 C14            3.4974     6.1707    -0.0004 C.3     
  15 O15           -1.1727    -0.6809     0.0100 O.3     
  16 C16           -2.3704     0.0985     0.0261 C.3     
  17 C17           -3.5846    -0.8323     0.0332 C.3     
  18 H18            1.1845    -1.8005    -0.0186 H       
  19 H19            4.5110     1.6103    -0.0328 H       
  20 H20            4.4137     4.0445    -0.0210 H       
  21 H21            3.9047    -0.9165    -0.9230 H       
  22 H22           -0.5608     4.3389    -0.9965 H       
  23 H23           -0.9753     3.5518     0.5452 H       
  24 H24           -0.1146     5.1099     0.5445 H       
  25 H25            4.0695     5.8854     0.8825 H       
  26 H26            4.0519     5.8948    -0.8974 H       
  27 H27            3.3310     7.2479     0.0069 H       
  28 H28           -2.3858     0.7226     0.9197 H       
  29 H29           -2.4034     0.7321    -0.8602 H       
  30 H30           -3.5692    -1.4564    -0.8604 H       
  31 H31           -3.5515    -1.4660     0.9195 H       
  32 H32           -4.4981    -0.2378     0.0454 H       
@<TRIPOS>BOND
   1    1    2 ar
   2    1   10 ar
   3    2    3 ar
   4    2   15 1
   5    3    4 ar
   6    3   18 1
   7    4    5 ar
   8    4   11 1
   9    5    6 ar
  10    5   10 ar
  11    6    7 ar
  12    6   19 1
  13    7    8 ar
  14    7   20 1
  15    8    9 ar
  16    8   13 1
  17    9   10 ar
  18    9   12 1
  19   11   21 1
  20   12   22 1
  21   12   23 1
  22   12   24 1
  23   13   14 1
  24   14   25 1
  25   14   26 1
  26   14   27 1
  27   15   16 1
  28   16   17 1
  29   16   28 1
  30   16   29 1
  31   17   30 1
  32   17   31 1
  33   17   32 1

#	End of record

