#	Name: ASD02198283
#	Creating user name:	WinNT
#	Creation time:	15. 06. 2019 20:19

#	Modifying user name:	WinNT
#	Modification time:	15. 06. 2019 20:19

#	Program:	/corina/corina34_cracker 3.40 0067  02.08.2006

@<TRIPOS>MOLECULE
ASD02198283
  37   40    0    0    0
SMALL
NO_CHARGES


@<TRIPOS>ATOM
   1 C1            -0.0167     1.3799     0.0096 C.2     
   2 C2             0.0021    -0.0041     0.0020 C.2     
   3 S3             1.6544     1.9377    -0.0033 S.3     
   4 C4             2.2112     0.3224    -0.0173 C.2     
   5 N5             1.2119    -0.5125    -0.0123 N.2     
   6 N6            -1.1462    -0.7784     0.0093 N.pl3   
   7 C7            -1.1641     2.1948     0.0198 C.2     
   8 O8            -2.2731     1.6867     0.0225 O.2     
   9 C9            -1.0256     3.6646     0.0271 C.2     
  10 N10            3.5365    -0.0463    -0.0315 N.pl3   
  11 C11            3.9020    -1.4650    -0.0427 C.3     
  12 C12           -2.0378     4.5829     0.0371 C.2     
  13 C13           -1.3617     5.8326     0.0414 C.2     
  14 N14           -0.0809     5.5582     0.0339 N.2     
  15 O15            0.1228     4.3668     0.0311 O.3     
  16 C16           -1.9831     7.1808     0.0522 C.ar    
  17 C17           -1.1813     8.3201     0.0552 C.ar    
  18 C18           -3.3701     7.3113     0.0535 C.ar    
  19 C19           -3.9426     8.5671     0.0635 C.ar    
  20 C20           -3.1419     9.6949     0.0723 C.ar    
  21 C21           -1.7642     9.5712     0.0653 C.ar    
  22 C22            5.2640    -1.8390    -0.6309 C.3     
  23 C23            5.0382    -1.9090     0.8808 C.3     
  24 H24           -2.0179    -0.3531     0.0202 H       
  25 H25           -1.0787    -1.7460     0.0034 H       
  26 H26            4.2289     0.6329    -0.0342 H       
  27 H27            3.0781    -2.1615    -0.1984 H       
  28 H28           -3.1024     4.4011     0.0405 H       
  29 H29           -0.1055     8.2246     0.0501 H       
  30 H30           -3.9962     6.4313     0.0462 H       
  31 H31           -5.0178     8.6694     0.0642 H       
  32 H32           -3.5939    10.6757     0.0799 H       
  33 H33           -1.1436    10.4550     0.0726 H       
  34 H34            5.3363    -2.7817    -1.1732 H       
  35 H35            5.8881    -1.0295    -1.0095 H       
  36 H36            5.5137    -1.1457     1.4966 H       
  37 H37            4.9619    -2.8979     1.3329 H       
@<TRIPOS>BOND
   1    1    2 2
   2    1    3 1
   3    1    7 1
   4    2    6 1
   5    2    5 1
   6    3    4 1
   7    4    5 2
   8    4   10 1
   9    6   24 1
  10    6   25 1
  11    7    8 2
  12    7    9 1
  13    9   12 2
  14    9   15 1
  15   10   11 1
  16   10   26 1
  17   11   22 1
  18   11   23 1
  19   11   27 1
  20   12   13 1
  21   12   28 1
  22   13   14 2
  23   13   16 1
  24   14   15 1
  25   16   17 ar
  26   16   18 ar
  27   17   21 ar
  28   17   29 1
  29   18   19 ar
  30   18   30 1
  31   19   20 ar
  32   19   31 1
  33   20   21 ar
  34   20   32 1
  35   21   33 1
  36   22   23 1
  37   22   34 1
  38   22   35 1
  39   23   36 1
  40   23   37 1

#	End of record

