#	Name: ASD03240439
#	Creating user name:	WinNT
#	Creation time:	15. 06. 2019 20:34

#	Modifying user name:	WinNT
#	Modification time:	15. 06. 2019 20:34

#	Program:	/corina/corina34_cracker 3.40 0067  02.08.2006

@<TRIPOS>MOLECULE
ASD03240439
  44   46    0    0    0
SMALL
NO_CHARGES


@<TRIPOS>ATOM
   1 C1            -0.0687     1.4766     0.0646 C.ar    
   2 C2            -0.1573     0.0988    -0.0112 C.ar    
   3 C3             0.6071     4.0503    -1.4794 C.ar    
   4 C4             1.3916     2.9281    -1.2833 C.ar    
   5 C5             1.2788     2.1484     0.0014 C.3     
   6 C6             0.7065     4.7681    -2.6541 C.ar    
   7 C7             1.5988     4.3605    -3.6432 C.ar    
   8 C8             2.3861     3.2292    -3.4407 C.ar    
   9 C9             2.2788     2.5187    -2.2622 C.ar    
  10 C10            1.7096     5.1284    -4.9090 C.2     
  11 C11           -1.3913    -0.5194     0.0466 C.ar    
  12 C12           -2.5423     0.2434     0.1807 C.ar    
  13 C13           -2.4508     1.6256     0.2565 C.ar    
  14 C14           -1.2148     2.2393     0.1926 C.ar    
  15 O15           -3.7575    -0.3624     0.2373 O.3     
  16 C16            2.5372     4.8428    -5.9555 C.2     
  17 N17            2.3321     5.7781    -6.9047 N.pl3   
  18 N18            1.3550     6.6666    -6.4397 N.2     
  19 C19            0.9751     6.2807    -5.2505 C.2     
  20 C20           -4.8994     0.4856     0.3758 C.3     
  21 C21            1.4308     3.0994     1.1902 C.3     
  22 C22            1.4412     2.2929     2.4904 C.3     
  23 N23            1.5872     3.2060     3.6318 N.3     
  24 H24            0.7391    -0.4945    -0.1159 H       
  25 H25           -0.0875     4.3629    -0.7138 H       
  26 H26            2.0635     1.3928     0.0379 H       
  27 H27            0.0934     5.6440    -2.8064 H       
  28 H28            3.0794     2.9089    -4.2043 H       
  29 H29            2.8890     1.6417    -2.1041 H       
  30 H30           -1.4600    -1.5955    -0.0130 H       
  31 H31           -3.3454     2.2216     0.3609 H       
  32 H32           -1.1430     3.3153     0.2515 H       
  33 H33            3.2309     4.0171    -6.0131 H       
  34 H34            2.7839     5.8272    -7.7617 H       
  35 H35            0.2325     6.7651    -4.6338 H       
  36 H36           -4.9510     1.1670    -0.4734 H       
  37 H37           -5.8026    -0.1236     0.4083 H       
  38 H38           -4.8154     1.0603     1.2982 H       
  39 H39            2.3665     3.6507     1.0971 H       
  40 H40            0.5960     3.8001     1.2040 H       
  41 H41            0.5055     1.7416     2.5835 H       
  42 H42            2.2760     1.5922     2.4766 H       
  43 H43            0.8606     3.9062     3.6300 H       
  44 H44            1.5968     2.6971     4.5030 H       
@<TRIPOS>BOND
   1    1    2 ar
   2    1    5 1
   3    1   14 ar
   4    2   11 ar
   5    2   24 1
   6    3    4 ar
   7    3    6 ar
   8    3   25 1
   9    4    5 1
  10    4    9 ar
  11    5   21 1
  12    5   26 1
  13    6    7 ar
  14    6   27 1
  15    7    8 ar
  16    7   10 1
  17    8    9 ar
  18    8   28 1
  19    9   29 1
  20   10   16 2
  21   10   19 1
  22   11   12 ar
  23   11   30 1
  24   12   13 ar
  25   12   15 1
  26   13   14 ar
  27   13   31 1
  28   14   32 1
  29   15   20 1
  30   16   17 1
  31   16   33 1
  32   17   18 1
  33   17   34 1
  34   18   19 2
  35   19   35 1
  36   20   36 1
  37   20   37 1
  38   20   38 1
  39   21   22 1
  40   21   39 1
  41   21   40 1
  42   22   23 1
  43   22   41 1
  44   22   42 1
  45   23   43 1
  46   23   44 1

#	End of record

