#	Name: ASD01911794
#	Creating user name:	WinNT
#	Creation time:	15. 06. 2019 19:58

#	Modifying user name:	WinNT
#	Modification time:	15. 06. 2019 19:58

#	Program:	/corina/corina34_cracker 3.40 0067  02.08.2006

@<TRIPOS>MOLECULE
ASD01911794
  38   40    0    0    0
SMALL
NO_CHARGES


@<TRIPOS>ATOM
   1 C1            -0.3833     1.5496     0.1083 C.2     
   2 N2            -0.3633     0.2315     0.5172 N.pl3   
   3 C3             1.5089     1.9348     1.5105 C.2     
   4 N4             1.4787     0.6457     1.8700 N.2     
   5 C5             0.5887    -0.1823     1.4032 C.2     
   6 C6            -1.3897    -0.4087    -0.1149 C.2     
   7 C7            -2.0243     0.5378    -0.9057 C.2     
   8 N8            -1.3733     1.7172    -0.7422 N.2     
   9 N9            -1.7312    -1.7441     0.0093 N.pl3   
  10 C10           -1.0173    -2.7171    -0.6976 C.ar    
  11 C11           -1.3943    -4.0542    -0.6176 C.ar    
  12 C12            0.0656    -2.3506    -1.4851 C.ar    
  13 C13            0.7691    -3.3140    -2.1823 C.ar    
  14 C14            0.3961    -4.6429    -2.0973 C.ar    
  15 C15           -0.6859    -5.0127    -1.3177 C.ar    
  16 F16           -2.4506    -4.4150     0.1435 F       
  17 I17            1.4665    -6.0987    -3.1574 I       
  18 C18           -3.1879     0.3042    -1.7695 C.2     
  19 N19           -3.7079     1.3186    -2.4886 N.am    
  20 O20           -3.6831    -0.8056    -1.8364 O.2     
  21 O21           -4.8303     1.0931    -3.3219 O.3     
  22 C22           -5.2752     2.2551    -4.0247 C.3     
  23 C23           -6.4857     1.8963    -4.8889 C.3     
  24 O24           -7.5780     1.5224    -4.0468 O.3     
  25 C25            0.5970     2.4293     0.6322 C.2     
  26 F26            0.6247     3.7295     0.2664 F       
  27 H27            2.2643     2.5878     1.9221 H       
  28 H28            0.6039    -1.2139     1.7228 H       
  29 H29           -2.4658    -2.0052     0.5865 H       
  30 H30            0.3577    -1.3130    -1.5531 H       
  31 H31            1.6115    -3.0286    -2.7949 H       
  32 H32           -0.9745    -6.0514    -1.2531 H       
  33 H33           -3.3132     2.2030    -2.4354 H       
  34 H34           -5.5561     3.0275    -3.3087 H       
  35 H35           -4.4712     2.6249    -4.6611 H       
  36 H36           -6.7702     2.7586    -5.4917 H       
  37 H37           -6.2303     1.0633    -5.5440 H       
  38 H38           -8.3812     1.2814    -4.5284 H       
@<TRIPOS>BOND
   1    1    2 1
   2    1   25 1
   3    1    8 2
   4    2    6 1
   5    2    5 1
   6    3    4 1
   7    3   25 2
   8    3   27 1
   9    4    5 2
  10    5   28 1
  11    6    7 2
  12    6    9 1
  13    7    8 1
  14    7   18 1
  15    9   10 1
  16    9   29 1
  17   10   11 ar
  18   10   12 ar
  19   11   16 1
  20   11   15 ar
  21   12   13 ar
  22   12   30 1
  23   13   14 ar
  24   13   31 1
  25   14   15 ar
  26   14   17 1
  27   15   32 1
  28   18   19 am
  29   18   20 2
  30   19   21 1
  31   19   33 1
  32   21   22 1
  33   22   23 1
  34   22   34 1
  35   22   35 1
  36   23   24 1
  37   23   36 1
  38   23   37 1
  39   24   38 1
  40   25   26 1

#	End of record

