#	Name: ASD01913080
#	Creating user name:	WinNT
#	Creation time:	15. 06. 2019 20:00

#	Modifying user name:	WinNT
#	Modification time:	15. 06. 2019 20:00

#	Program:	/corina/corina34_cracker 3.40 0067  02.08.2006

@<TRIPOS>MOLECULE
ASD01913080
  31   32    0    0    0
SMALL
NO_CHARGES


@<TRIPOS>ATOM
   1 N1            -0.0169     1.3965     0.0097 N.2     
   2 N2             0.0021    -0.0041     0.0020 N.pl3   
   3 C3             1.2284     1.8226     0.0001 C.2     
   4 C4             2.0722     0.6950    -0.0140 C.2     
   5 C5             1.2909    -0.4070    -0.0125 C.2     
   6 C6             1.7727    -1.8348    -0.0243 C.3     
   7 C7             1.6660     3.2408     0.0031 C.ar    
   8 C8             0.8239    -2.7002     0.8075 C.3     
   9 C9             1.8034    -2.3508    -1.4643 C.3     
  10 C10            0.7204     4.2636     0.0177 C.ar    
  11 C11            1.1317     5.5809     0.0209 C.ar    
  12 C12            2.4827     5.8868     0.0092 C.ar    
  13 C13            3.4266     4.8725    -0.0053 C.ar    
  14 C14            3.0241     3.5529    -0.0028 C.ar    
  15 F15            2.8811     7.1777     0.0115 F       
  16 C16            0.1096     6.6883     0.0367 C.3     
  17 H17           -0.7755    -0.5839     0.0063 H       
  18 H18            3.1521     0.7089    -0.0249 H       
  19 H19            2.7753    -1.8835     0.4005 H       
  20 H20           -0.1788    -2.6515     0.3827 H       
  21 H21            1.1724    -3.7329     0.7989 H       
  22 H22            0.8020    -2.3326     1.8334 H       
  23 H23            2.4793    -1.7343    -2.0569 H       
  24 H24            2.1519    -3.3836    -1.4729 H       
  25 H25            0.8007    -2.3022    -1.8891 H       
  26 H26           -0.3331     4.0260     0.0261 H       
  27 H27            4.4789     5.1153    -0.0147 H       
  28 H28            3.7605     2.7629    -0.0142 H       
  29 H29           -0.1270     6.9497     1.0681 H       
  30 H30            0.5123     7.5617    -0.4763 H       
  31 H31           -0.7956     6.3544    -0.4704 H       
@<TRIPOS>BOND
   1    1    2 1
   2    1    3 2
   3    2    5 1
   4    2   17 1
   5    3    4 1
   6    3    7 1
   7    4    5 2
   8    4   18 1
   9    5    6 1
  10    6    8 1
  11    6    9 1
  12    6   19 1
  13    7   10 ar
  14    7   14 ar
  15    8   20 1
  16    8   21 1
  17    8   22 1
  18    9   23 1
  19    9   24 1
  20    9   25 1
  21   10   11 ar
  22   10   26 1
  23   11   12 ar
  24   11   16 1
  25   12   13 ar
  26   12   15 1
  27   13   14 ar
  28   13   27 1
  29   14   28 1
  30   16   29 1
  31   16   30 1
  32   16   31 1

#	End of record

