#	Name: ASD00170407
#	Creating user name:	WinNT
#	Creation time:	15. 06. 2019 18:32

#	Modifying user name:	WinNT
#	Modification time:	15. 06. 2019 18:32

#	Program:	/corina/corina34_cracker 3.40 0067  02.08.2006

@<TRIPOS>MOLECULE
ASD00170407
  53   55    0    0    0
SMALL
NO_CHARGES


@<TRIPOS>ATOM
   1 C1            -0.0287     1.2166    -0.2283 C.2     
   2 C2            -0.0511    -0.1070     0.1539 C.2     
   3 C3            -1.3906    -0.6260     0.2960 C.2     
   4 C4            -2.3352     0.2839     0.0275 C.2     
   5 S5            -1.6116     1.8225    -0.4055 S.3     
   6 C6            -1.6940    -2.0448     0.7032 C.3     
   7 C7            -3.7893     0.0288     0.0927 C.ar    
   8 C8            -4.6197     0.8855     0.8176 C.ar    
   9 C9            -5.9763     0.6415     0.8743 C.ar    
  10 C10           -6.5143    -0.4494     0.2148 C.ar    
  11 C11           -5.6970    -1.3025    -0.5055 C.ar    
  12 C12           -4.3395    -1.0668    -0.5752 C.ar    
  13 N13            1.1183     1.9526    -0.4336 N.pl3   
  14 C14            1.1548    -0.9020     0.3907 C.2     
  15 C15            1.7638    -1.6691    -0.7170 C.ar    
  16 O16            1.6564    -0.9317     1.4998 O.2     
  17 C17            2.9735    -2.3390    -0.5235 C.ar    
  18 C18            3.5366    -3.0527    -1.5603 C.ar    
  19 C19            2.9049    -3.1056    -2.7918 C.ar    
  20 C20            1.7046    -2.4431    -2.9898 C.ar    
  21 C21            1.1287    -1.7313    -1.9587 C.ar    
  22 Cl22           3.6205    -4.0053    -4.0926 Cl      
  23 N23           -1.6282    -2.1591     2.1662 N.3     
  24 C24           -2.7848    -1.5097     2.7975 C.3     
  25 C25           -1.5227    -3.5646     2.5803 C.3     
  26 C26           -0.2551    -4.1785     1.9828 C.3     
  27 C27           -1.4567    -3.6429     4.1069 C.3     
  28 C28           -2.7466    -4.3361     2.0825 C.3     
  29 H29           -2.6935    -2.3148     0.3622 H       
  30 H30           -0.9629    -2.7163     0.2530 H       
  31 H31           -4.2010     1.7371     1.3331 H       
  32 H32           -6.6198     1.3032     1.4351 H       
  33 H33           -7.5770    -0.6361     0.2627 H       
  34 H34           -6.1233    -2.1523    -1.0177 H       
  35 H35           -3.7027    -1.7332    -1.1380 H       
  36 H36            1.9852     1.5649    -0.2358 H       
  37 H37            1.0588     2.8582    -0.7760 H       
  38 H38            3.4673    -2.2978     0.4361 H       
  39 H39            4.4723    -3.5713    -1.4118 H       
  40 H40            1.2168    -2.4876    -3.9523 H       
  41 H41            0.1926    -1.2154    -2.1141 H       
  42 H42           -3.6991    -2.0172     2.4901 H       
  43 H43           -2.6856    -1.5649     3.8816 H       
  44 H44           -2.8280    -0.4650     2.4894 H       
  45 H45            0.6168    -3.6288     2.3374 H       
  46 H46           -0.1768    -5.2214     2.2901 H       
  47 H47           -0.3021    -4.1227     0.8953 H       
  48 H48           -2.3598    -3.2055     4.5326 H       
  49 H49           -1.3784    -4.6858     4.4141 H       
  50 H50           -0.5848    -3.0932     4.4615 H       
  51 H51           -2.7936    -4.2803     0.9950 H       
  52 H52           -2.6683    -5.3790     2.3898 H       
  53 H53           -3.6497    -3.8988     2.5082 H       
@<TRIPOS>BOND
   1    1    2 2
   2    1   13 1
   3    1    5 1
   4    2    3 1
   5    2   14 1
   6    3    4 2
   7    3    6 1
   8    4    5 1
   9    4    7 1
  10    6   23 1
  11    6   29 1
  12    6   30 1
  13    7    8 ar
  14    7   12 ar
  15    8    9 ar
  16    8   31 1
  17    9   10 ar
  18    9   32 1
  19   10   11 ar
  20   10   33 1
  21   11   12 ar
  22   11   34 1
  23   12   35 1
  24   13   36 1
  25   13   37 1
  26   14   15 1
  27   14   16 2
  28   15   17 ar
  29   15   21 ar
  30   17   18 ar
  31   17   38 1
  32   18   19 ar
  33   18   39 1
  34   19   20 ar
  35   19   22 1
  36   20   21 ar
  37   20   40 1
  38   21   41 1
  39   23   24 1
  40   23   25 1
  41   24   42 1
  42   24   43 1
  43   24   44 1
  44   25   26 1
  45   25   27 1
  46   25   28 1
  47   26   45 1
  48   26   46 1
  49   26   47 1
  50   27   48 1
  51   27   49 1
  52   27   50 1
  53   28   51 1
  54   28   52 1
  55   28   53 1

#	End of record

