#	Name: ASD07300898
#	Creating user name:	WinNT
#	Creation time:	15. 06. 2019 21:10

#	Modifying user name:	WinNT
#	Modification time:	15. 06. 2019 21:10

#	Program:	/corina/corina34_cracker 3.40 0067  02.08.2006

@<TRIPOS>MOLECULE
ASD07300898
  49   53    0    0    0
SMALL
NO_CHARGES


@<TRIPOS>ATOM
   1 N1             0.1738     1.0829    -0.3636 N.am    
   2 C2             0.0602    -0.2688    -0.3307 C.2     
   3 N3             1.0842    -1.0685    -0.3921 N.2     
   4 C4             2.3401    -0.6056    -0.4939 C.2     
   5 C5             2.5572     0.7807    -0.5355 C.2     
   6 C6             1.3926     1.6631    -0.4648 C.2     
   7 N7             3.5626    -1.1922    -0.5739 N.pl3   
   8 N8             4.5297    -0.1832    -0.6643 N.2     
   9 C9             3.9458     0.9831    -0.6424 C.2     
  10 O10            1.5150     2.8748    -0.4966 O.2     
  11 C11            3.8246    -2.6336    -0.5664 C.3     
  12 C12            4.3842    -3.0573    -1.9259 C.3     
  13 C13            4.6578    -4.5626    -1.9180 C.3     
  14 C14            5.6751    -4.8903    -0.8232 C.3     
  15 C15            5.1155    -4.4666     0.5363 C.3     
  16 C16            4.8419    -2.9613     0.5285 C.3     
  17 C17           -1.3164    -0.8716    -0.2174 C.3     
  18 C18           -1.4067    -2.3075    -0.7603 C.3     
  19 C19           -2.3165    -2.6200     0.4395 C.3     
  20 C20           -1.6183    -1.4612     1.1705 C.3     
  21 F21            5.9253    -6.2667    -0.8160 F       
  22 F22            6.8667    -4.2010    -1.0724 F       
  23 C23           -0.3858    -1.8812     1.9291 C.2     
  24 N24           -0.0756    -1.5090     3.1382 N.2     
  25 C25            1.0909    -2.0839     3.4804 C.2     
  26 C26            1.4986    -2.8296     2.4401 C.2     
  27 O27            0.5685    -2.7035     1.4733 O.3     
  28 C28            1.8113    -1.9205     4.7939 C.3     
  29 H29           -0.6220     1.6357    -0.3184 H       
  30 H30            4.4429     1.9403    -0.6970 H       
  31 H31            2.8962    -3.1706    -0.3722 H       
  32 H32            3.6595    -2.8238    -2.7058 H       
  33 H33            5.3126    -2.5202    -2.1200 H       
  34 H34            3.7294    -5.0996    -1.7239 H       
  35 H35            5.0565    -4.8645    -2.8865 H       
  36 H36            4.1871    -5.0037     0.7304 H       
  37 H37            5.8402    -4.7001     1.3163 H       
  38 H38            5.7703    -2.4242     0.3343 H       
  39 H39            4.4432    -2.6594     1.4970 H       
  40 H40           -2.0992    -0.2127    -0.5931 H       
  41 H41           -1.9132    -2.3794    -1.7228 H       
  42 H42           -0.4574    -2.8427    -0.7394 H       
  43 H43           -3.3736    -2.4395     0.2445 H       
  44 H44           -2.1283    -3.5956     0.8878 H       
  45 H45           -2.2957    -0.8497     1.7667 H       
  46 H46            2.4004    -3.4217     2.3896 H       
  47 H47            1.5437    -2.7410     5.4597 H       
  48 H48            2.8876    -1.9287     4.6215 H       
  49 H49            1.5238    -0.9734     5.2506 H       
@<TRIPOS>BOND
   1    1    2 1
   2    1    6 am
   3    1   29 1
   4    2    3 2
   5    2   17 1
   6    3    4 1
   7    4    5 2
   8    4    7 1
   9    5    6 1
  10    5    9 1
  11    6   10 2
  12    7    8 1
  13    7   11 1
  14    8    9 2
  15    9   30 1
  16   11   12 1
  17   11   16 1
  18   11   31 1
  19   12   13 1
  20   12   32 1
  21   12   33 1
  22   13   14 1
  23   13   34 1
  24   13   35 1
  25   14   15 1
  26   14   21 1
  27   14   22 1
  28   15   16 1
  29   15   36 1
  30   15   37 1
  31   16   38 1
  32   16   39 1
  33   17   18 1
  34   17   20 1
  35   17   40 1
  36   18   19 1
  37   18   41 1
  38   18   42 1
  39   19   20 1
  40   19   43 1
  41   19   44 1
  42   20   23 1
  43   20   45 1
  44   23   24 2
  45   23   27 1
  46   24   25 1
  47   25   26 2
  48   25   28 1
  49   26   27 1
  50   26   46 1
  51   28   47 1
  52   28   48 1
  53   28   49 1

#	End of record

