#	Name: ASD05730047
#	Creating user name:	WinNT
#	Creation time:	15. 06. 2019 21:02

#	Modifying user name:	WinNT
#	Modification time:	15. 06. 2019 21:02

#	Program:	/corina/corina34_cracker 3.40 0067  02.08.2006

@<TRIPOS>MOLECULE
ASD05730047
  91   96    0    0    0
SMALL
NO_CHARGES


@<TRIPOS>ATOM
   1 C1            -0.0021     1.3045    -0.7085 C.3     
   2 N2            -0.0001     0.0028    -0.0264 N.3     
   3 C3            -1.2958    -0.5180     0.0639 C.ar    
   4 C4            -1.5096    -1.7458     0.6769 C.ar    
   5 C5            -2.7881    -2.2594     0.7664 C.ar    
   6 C6            -3.8602    -1.5485     0.2432 C.ar    
   7 C7            -3.6464    -0.3210    -0.3701 C.ar    
   8 C8            -2.3687     0.1955    -0.4542 C.ar    
   9 N9            -5.1571    -2.0697     0.3336 N.pl3   
  10 C10           -6.2321    -1.2204     0.5126 C.ar    
  11 N11           -7.4559    -1.7253     0.4816 N.ar    
  12 C12           -8.5146    -0.9408     0.6500 C.ar    
  13 C13           -8.3077     0.4395     0.8624 C.ar    
  14 C14           -6.9917     0.9254     0.8867 C.ar    
  15 N15           -5.9997     0.0718     0.7150 N.ar    
  16 N16           -9.7853    -1.4579     0.6184 N.am    
  17 C17          -10.8588    -0.6628     0.7883 C.2     
  18 C18          -10.6859     0.7760     1.0114 C.2     
  19 C19           -9.4103     1.3047     1.0460 C.2     
  20 C20           -9.9765    -2.8933     0.3966 C.3     
  21 C21           -9.9858    -3.6206     1.7426 C.3     
  22 O22          -11.9785    -1.1410     0.7560 O.2     
  23 C23          -11.8615     1.6494     1.1979 C.2     
  24 N24          -12.1767     2.3472     2.3360 N.pl3   
  25 N25          -10.1771    -5.0561     1.5208 N.am    
  26 S26           -8.8649    -6.0625     1.4337 S.o2    
  27 C27          -11.5291    -5.6011     1.3759 C.3     
  28 C28            0.9010    -0.9412    -0.7021 C.3     
  29 C29            2.3210    -0.3702    -0.7099 C.3     
  30 N30            2.3190     0.9315    -1.3920 N.3     
  31 C31            1.4179     1.8755    -0.7163 C.3     
  32 O32           -7.8065    -5.2213     0.9961 O.2     
  33 C33           -8.5884    -6.5949     3.1457 C.3     
  34 O34           -9.3112    -7.1523     0.6385 O.2     
  35 C35          -12.8237     1.9102     0.2672 C.2     
  36 C36          -13.7504     2.7853     0.8571 C.2     
  37 C37          -13.3339     3.0364     2.1171 C.2     
  38 C38          -11.4008     2.3518     3.5786 C.3     
  39 S39          -15.1946     3.4410     0.0897 S.o2    
  40 O40          -14.8912     3.4266    -1.2984 O.2     
  41 C41          -16.4959     2.2356     0.4694 C.3     
  42 O42          -15.4315     4.6630     0.7752 O.2     
  43 C43          -17.7866     2.6314    -0.2530 C.3     
  44 C44          -16.0605     0.8462    -0.0046 C.3     
  45 C45          -17.1866    -0.1549     0.2631 C.3     
  46 N46          -18.3987     0.2677    -0.4501 N.3     
  47 C47          -18.8627     1.5785     0.0219 C.3     
  48 C48          -19.4595    -0.7412    -0.3290 C.3     
  49 H49           -0.3485     1.1771    -1.7341 H       
  50 H50           -0.6667     1.9897    -0.1823 H       
  51 H51           -0.6757    -2.2990     1.0831 H       
  52 H52           -2.9543    -3.2141     1.2430 H       
  53 H53           -4.4801     0.2315    -0.7776 H       
  54 H54           -2.2025     1.1503    -0.9309 H       
  55 H55           -5.3005    -3.0270     0.2706 H       
  56 H56           -6.7944     1.9752     1.0465 H       
  57 H57           -9.2580     2.3614     1.2092 H       
  58 H58          -10.9260    -3.0590    -0.1125 H       
  59 H59           -9.1627    -3.2775    -0.2184 H       
  60 H60           -9.0364    -3.4550     2.2517 H       
  61 H61          -10.7997    -3.2364     2.3576 H       
  62 H62          -11.8164    -5.5858     0.3245 H       
  63 H63          -11.5484    -6.6273     1.7429 H       
  64 H64          -12.2286    -4.9959     1.9525 H       
  65 H65            0.8948    -1.8932    -0.1713 H       
  66 H66            0.5649    -1.0941    -1.7277 H       
  67 H67            2.6673    -0.2429     0.3157 H       
  68 H68            2.9856    -1.0554    -1.2361 H       
  69 H69            3.2532     1.3070    -1.4571 H       
  70 H70            1.4241     2.8275    -1.2471 H       
  71 H71            1.7540     2.0284     0.3093 H       
  72 H72           -9.4746    -7.1125     3.5128 H       
  73 H73           -7.7325    -7.2687     3.1829 H       
  74 H74           -8.3920    -5.7233     3.7700 H       
  75 H75          -12.8654     1.5166    -0.7376 H       
  76 H76          -13.8330     3.6746     2.8312 H       
  77 H77          -10.7267     3.2084     3.5829 H       
  78 H78          -12.0784     2.4184     4.4298 H       
  79 H79          -10.8200     1.4320     3.6477 H       
  80 H80          -16.6717     2.2160     1.5449 H       
  81 H81          -18.1249     3.6013     0.1115 H       
  82 H82          -17.6002     2.6898    -1.3254 H       
  83 H83          -15.8469     0.8766    -1.0730 H       
  84 H84          -15.1655     0.5407     0.5375 H       
  85 H85          -16.8853    -1.1424    -0.0863 H       
  86 H86          -17.3902    -0.1949     1.3332 H       
  87 H87          -19.0585     1.5304     1.0931 H       
  88 H88          -19.7788     1.8500    -0.5027 H       
  89 H89          -19.7054    -0.8854     0.7231 H       
  90 H90          -20.3456    -0.4031    -0.8662 H       
  91 H91          -19.1147    -1.6839    -0.7539 H       
@<TRIPOS>BOND
   1    1    2 1
   2    1   31 1
   3    1   49 1
   4    1   50 1
   5    2    3 1
   6    2   28 1
   7    3    4 ar
   8    3    8 ar
   9    4    5 ar
  10    4   51 1
  11    5    6 ar
  12    5   52 1
  13    6    7 ar
  14    6    9 1
  15    7    8 ar
  16    7   53 1
  17    8   54 1
  18    9   10 1
  19    9   55 1
  20   10   11 ar
  21   10   15 ar
  22   11   12 ar
  23   12   13 ar
  24   12   16 1
  25   13   14 ar
  26   13   19 1
  27   14   15 ar
  28   14   56 1
  29   16   17 am
  30   16   20 1
  31   17   18 1
  32   17   22 2
  33   18   19 2
  34   18   23 1
  35   19   57 1
  36   20   21 1
  37   20   58 1
  38   20   59 1
  39   21   25 1
  40   21   60 1
  41   21   61 1
  42   23   35 2
  43   23   24 1
  44   24   38 1
  45   24   37 1
  46   25   26 am
  47   25   27 1
  48   26   32 2
  49   26   33 1
  50   26   34 2
  51   27   62 1
  52   27   63 1
  53   27   64 1
  54   28   29 1
  55   28   65 1
  56   28   66 1
  57   29   30 1
  58   29   67 1
  59   29   68 1
  60   30   31 1
  61   30   69 1
  62   31   70 1
  63   31   71 1
  64   33   72 1
  65   33   73 1
  66   33   74 1
  67   35   36 1
  68   35   75 1
  69   36   37 2
  70   36   39 1
  71   37   76 1
  72   38   77 1
  73   38   78 1
  74   38   79 1
  75   39   40 2
  76   39   41 1
  77   39   42 2
  78   41   43 1
  79   41   44 1
  80   41   80 1
  81   43   47 1
  82   43   81 1
  83   43   82 1
  84   44   45 1
  85   44   83 1
  86   44   84 1
  87   45   46 1
  88   45   85 1
  89   45   86 1
  90   46   47 1
  91   46   48 1
  92   47   87 1
  93   47   88 1
  94   48   89 1
  95   48   90 1
  96   48   91 1

#	End of record

