#	Name: ASD03240632
#	Creating user name:	WinNT
#	Creation time:	15. 06. 2019 20:35

#	Modifying user name:	WinNT
#	Modification time:	15. 06. 2019 20:35

#	Program:	/corina/corina34_cracker 3.40 0067  02.08.2006

@<TRIPOS>MOLECULE
ASD03240632
  70   76    0    0    0
SMALL
NO_CHARGES


@<TRIPOS>ATOM
   1 C1             0.5441     1.6417     1.6781 C.ar    
   2 C2             0.6026     0.2713     1.8271 C.ar    
   3 N3             1.7526    -0.3716     1.7557 N.ar    
   4 C4             2.8975     0.2620     1.5398 C.ar    
   5 C5             2.9107     1.6445     1.3656 C.ar    
   6 C6             1.7160     2.3485     1.4422 C.ar    
   7 N7             4.0818    -0.4691     1.5108 N.pl3   
   8 C8             5.0795    -0.2424     2.4551 C.ar    
   9 C9             5.7113     1.0031     2.5369 C.ar    
  10 C10            5.3447     2.0859     1.5979 C.2     
  11 N11            4.1000     2.3371     1.0978 N.pl3   
  12 C12            5.4511    -1.2578     3.3262 C.ar    
  13 C13            6.4316    -1.0323     4.2734 C.ar    
  14 C14            7.0493     0.2033     4.3630 C.ar    
  15 C15            6.6951     1.2215     3.5010 C.ar    
  16 N16            6.1888     2.9714     1.1075 N.2     
  17 C17            5.5395     3.8091     0.2844 C.2     
  18 C18            4.2094     3.4280     0.2580 C.2     
  19 C19            3.1235     4.0614    -0.5145 C.ar    
  20 C20            2.9991     5.4527    -0.5396 C.ar    
  21 C21            2.2182     3.2728    -1.2291 C.ar    
  22 C22            1.2056     3.8717    -1.9489 C.ar    
  23 C23            1.0851     5.2502    -1.9646 C.ar    
  24 C24            1.9816     6.0378    -1.2638 C.ar    
  25 C25            6.1390     4.9391    -0.4622 C.ar    
  26 C26           -0.0237     5.8970    -2.7540 C.3     
  27 C27            7.1756     5.6804     0.1057 C.ar    
  28 N28           -1.1157     4.9670    -3.0713 N.3     
  29 C29           -0.5043     7.2320    -2.1610 C.3     
  30 C30           -0.5951     7.7509    -3.6057 C.3     
  31 C31            0.4723     6.7039    -3.9655 C.3     
  32 C32            7.7316     6.7316    -0.5914 C.ar    
  33 C33            7.2607     7.0532    -1.8588 C.ar    
  34 C34            6.2279     6.3168    -2.4269 C.ar    
  35 C35            5.6722     5.2606    -1.7370 C.ar    
  36 N36            7.8268     8.1204    -2.5639 N.am    
  37 C37            8.7857     9.0088    -1.9024 C.3     
  38 C38            7.4903     8.3314    -3.8518 C.2     
  39 C39            7.9970     9.5541    -4.5724 C.3     
  40 O40            6.7796     7.5372    -4.4308 O.2     
  41 H41           -0.4024     2.1581     1.7397 H       
  42 H42           -0.3067    -0.2835     2.0052 H       
  43 H43            1.6987     3.4215     1.3207 H       
  44 H44            4.2131    -1.1435     0.8261 H       
  45 H45            4.9734    -2.2243     3.2636 H       
  46 H46            6.7176    -1.8252     4.9486 H       
  47 H47            7.8109     0.3712     5.1101 H       
  48 H48            7.1786     2.1845     3.5727 H       
  49 H49            3.6978     6.0686     0.0071 H       
  50 H50            2.3113     2.1968    -1.2180 H       
  51 H51            0.5053     3.2634    -2.5021 H       
  52 H52            1.8815     7.1130    -1.2805 H       
  53 H53            7.5417     5.4312     1.0907 H       
  54 H54           -0.7588     4.1163    -3.4799 H       
  55 H55           -1.6717     4.7695    -2.2528 H       
  56 H56           -1.4699     7.1647    -1.6597 H       
  57 H57            0.2506     7.7403    -1.5611 H       
  58 H58           -1.5616     7.5682    -4.0754 H       
  59 H59           -0.2544     8.7797    -3.7224 H       
  60 H60            1.4942     7.0679    -3.8589 H       
  61 H61            0.2952     6.2103    -4.9210 H       
  62 H62            8.5338     7.3060    -0.1521 H       
  63 H63            5.8634     6.5694    -3.4117 H       
  64 H64            4.8697     4.6887    -2.1789 H       
  65 H65            9.7872     8.5859    -1.9814 H       
  66 H66            8.7655     9.9872    -2.3824 H       
  67 H67            8.5177     9.1144    -0.8511 H       
  68 H68            8.6920    10.0933    -3.9287 H       
  69 H69            8.5083     9.2514    -5.4862 H       
  70 H70            7.1572    10.2020    -4.8235 H       
@<TRIPOS>BOND
   1    1    2 ar
   2    1    6 ar
   3    1   41 1
   4    2    3 ar
   5    2   42 1
   6    3    4 ar
   7    4    5 ar
   8    4    7 1
   9    5    6 ar
  10    5   11 1
  11    6   43 1
  12    7    8 1
  13    7   44 1
  14    8    9 ar
  15    8   12 ar
  16    9   10 1
  17    9   15 ar
  18   10   11 1
  19   10   16 2
  20   11   18 1
  21   12   13 ar
  22   12   45 1
  23   13   14 ar
  24   13   46 1
  25   14   15 ar
  26   14   47 1
  27   15   48 1
  28   16   17 1
  29   17   18 2
  30   17   25 1
  31   18   19 1
  32   19   20 ar
  33   19   21 ar
  34   20   24 ar
  35   20   49 1
  36   21   22 ar
  37   21   50 1
  38   22   23 ar
  39   22   51 1
  40   23   24 ar
  41   23   26 1
  42   24   52 1
  43   25   27 ar
  44   25   35 ar
  45   26   29 1
  46   26   28 1
  47   26   31 1
  48   27   32 ar
  49   27   53 1
  50   28   54 1
  51   28   55 1
  52   29   30 1
  53   29   56 1
  54   29   57 1
  55   30   31 1
  56   30   58 1
  57   30   59 1
  58   31   60 1
  59   31   61 1
  60   32   33 ar
  61   32   62 1
  62   33   34 ar
  63   33   36 1
  64   34   35 ar
  65   34   63 1
  66   35   64 1
  67   36   37 1
  68   36   38 am
  69   37   65 1
  70   37   66 1
  71   37   67 1
  72   38   39 1
  73   38   40 2
  74   39   68 1
  75   39   69 1
  76   39   70 1

#	End of record

