#	Name: ASD01884302
#	Creating user name:	WinNT
#	Creation time:	15. 06. 2019 19:47

#	Modifying user name:	WinNT
#	Modification time:	15. 06. 2019 19:47

#	Program:	/corina/corina34_cracker 3.40 0067  02.08.2006

@<TRIPOS>MOLECULE
ASD01884302
  28   29    0    0    0
SMALL
NO_CHARGES


@<TRIPOS>ATOM
   1 C1            -0.0398     1.3273    -0.3023 C.ar    
   2 N2            -0.0115     0.0107    -0.2360 N.ar    
   3 C3            -1.1147    -0.7029    -0.1277 C.ar    
   4 C4            -2.3558    -0.0848    -0.0798 C.ar    
   5 C5            -2.4223     1.3036    -0.1473 C.ar    
   6 C6            -1.2384     2.0149    -0.2550 C.ar    
   7 C7            -5.2002     0.0944     1.4058 C.ar    
   8 C8            -4.6732    -0.1651     0.1500 C.ar    
   9 C9            -5.3559     0.2505    -0.9869 C.ar    
  10 C10           -6.5586     0.9215    -0.8624 C.ar    
  11 C11           -7.0812     1.1786     0.3929 C.ar    
  12 C12           -6.4024     0.7658     1.5250 C.ar    
  13 Br13          -8.7261     2.0963     0.5606 Br      
  14 C14           -1.0267    -2.2056    -0.0557 C.3     
  15 O15           -3.4904    -0.8246     0.0310 O.3     
  16 C16            1.2522     2.0933    -0.4250 C.3     
  17 F17           -4.8450    -0.0003    -2.2122 F       
  18 H18           -3.3733     1.8143    -0.1126 H       
  19 H19           -1.2520     3.0934    -0.3097 H       
  20 H20           -4.6736    -0.2316     2.2905 H       
  21 H21           -7.0899     1.2454    -1.7451 H       
  22 H22           -6.8125     0.9681     2.5034 H       
  23 H23           -0.9392    -2.5150     0.9858 H       
  24 H24           -1.9252    -2.6435    -0.4905 H       
  25 H25           -0.1520    -2.5454    -0.6103 H       
  26 H26            1.4978     2.2250    -1.4788 H       
  27 H27            1.1421     3.0695     0.0472 H       
  28 H28            2.0512     1.5394     0.0678 H       
@<TRIPOS>BOND
   1    1    2 ar
   2    1   16 1
   3    1    6 ar
   4    2    3 ar
   5    3    4 ar
   6    3   14 1
   7    4    5 ar
   8    4   15 1
   9    5    6 ar
  10    5   18 1
  11    6   19 1
  12    7    8 ar
  13    7   12 ar
  14    7   20 1
  15    8    9 ar
  16    8   15 1
  17    9   10 ar
  18    9   17 1
  19   10   11 ar
  20   10   21 1
  21   11   12 ar
  22   11   13 1
  23   12   22 1
  24   14   23 1
  25   14   24 1
  26   14   25 1
  27   16   26 1
  28   16   27 1
  29   16   28 1

#	End of record

