#	Name: ASD01900476
#	Creating user name:	WinNT
#	Creation time:	15. 06. 2019 19:52

#	Modifying user name:	WinNT
#	Modification time:	15. 06. 2019 19:52

#	Program:	/corina/corina34_cracker 3.40 0067  02.08.2006

@<TRIPOS>MOLECULE
ASD01900476
  46   50    0    0    0
SMALL
NO_CHARGES


@<TRIPOS>ATOM
   1 C1             0.3630     3.7155     1.2707 C.ar    
   2 C2             0.7448     4.5359     2.3494 C.ar    
   3 C3             2.1018     4.7301     2.6049 C.ar    
   4 C4             3.0177     4.1044     1.7821 C.ar    
   5 C5             2.5697     3.3087     0.7358 C.ar    
   6 N6             1.2874     3.1360     0.5086 N.ar    
   7 N7            -1.5076     4.4619     2.2521 N.2     
   8 N8            -0.4072     4.9845     2.9394 N.pl3   
   9 C9            -1.1018     3.7148     1.2600 C.2     
  10 N10           -1.9193     3.0303     0.3554 N.pl3   
  11 C11           -3.3059     3.2151     0.3872 C.ar    
  12 C12           -3.8345     4.4471     0.7510 C.ar    
  13 C13           -5.2038     4.6286     0.7816 C.ar    
  14 C14           -6.0507     3.5798     0.4492 C.ar    
  15 C15           -5.5231     2.3500     0.0865 C.ar    
  16 C16           -4.1541     2.1688     0.0495 C.ar    
  17 O17           -7.3987     3.7587     0.4799 O.3     
  18 N18           -7.4070     2.6514    -2.0383 N.ar    
  19 C19           -7.4970     2.5266    -3.3444 C.ar    
  20 C20           -8.6949     2.1728    -3.9368 C.ar    
  21 C21           -9.7992     1.9544    -3.1315 C.ar    
  22 C22           -9.6647     2.0968    -1.7535 C.ar    
  23 C23          -10.8799     1.8619    -0.8974 C.3     
  24 C24          -10.4752     1.6334     0.5578 C.3     
  25 C25           -9.5407     2.7725     0.9834 C.3     
  26 C26           -8.2116     2.6062     0.2497 C.3     
  27 C27           -8.4406     2.4473    -1.2315 C.ar    
  28 Cl28          -5.8655     6.1678     1.2362 Cl      
  29 H29            2.4280     5.3536     3.4242 H       
  30 H30            4.0765     4.2335     1.9513 H       
  31 H31            3.2904     2.8221     0.0953 H       
  32 H32           -0.4525     5.5708     3.7109 H       
  33 H33           -1.5252     2.4273    -0.2942 H       
  34 H34           -3.1756     5.2626     1.0102 H       
  35 H35           -6.1827     1.5347    -0.1716 H       
  36 H36           -3.7436     1.2120    -0.2378 H       
  37 H37           -6.6272     2.7024    -3.9598 H       
  38 H38           -8.7679     2.0691    -5.0093 H       
  39 H39          -10.7492     1.6786    -3.5649 H       
  40 H40          -11.5347     2.7313    -0.9563 H       
  41 H41          -11.4138     0.9851    -1.2640 H       
  42 H42          -11.3632     1.6317     1.1899 H       
  43 H43           -9.9570     0.6789     0.6493 H       
  44 H44           -9.9877     3.7311     0.7199 H       
  45 H45           -9.3732     2.7264     2.0595 H       
  46 H46           -7.6988     1.7229     0.6304 H       
@<TRIPOS>BOND
   1    1    2 ar
   2    1    6 ar
   3    1    9 1
   4    2    3 ar
   5    2    8 1
   6    3    4 ar
   7    3   29 1
   8    4    5 ar
   9    4   30 1
  10    5    6 ar
  11    5   31 1
  12    7    8 1
  13    7    9 2
  14    8   32 1
  15    9   10 1
  16   10   11 1
  17   10   33 1
  18   11   12 ar
  19   11   16 ar
  20   12   13 ar
  21   12   34 1
  22   13   14 ar
  23   13   28 1
  24   14   15 ar
  25   14   17 1
  26   15   16 ar
  27   15   35 1
  28   16   36 1
  29   17   26 1
  30   18   19 ar
  31   18   27 ar
  32   19   20 ar
  33   19   37 1
  34   20   21 ar
  35   20   38 1
  36   21   22 ar
  37   21   39 1
  38   22   23 1
  39   22   27 ar
  40   23   24 1
  41   23   40 1
  42   23   41 1
  43   24   25 1
  44   24   42 1
  45   24   43 1
  46   25   26 1
  47   25   44 1
  48   25   45 1
  49   26   27 1
  50   26   46 1

#	End of record

