#	Name: ASD01202037
#	Creating user name:	WinNT
#	Creation time:	15. 06. 2019 19:09

#	Modifying user name:	WinNT
#	Modification time:	15. 06. 2019 19:09

#	Program:	/corina/corina34_cracker 3.40 0067  02.08.2006

@<TRIPOS>MOLECULE
ASD01202037
  41   44    0    0    0
SMALL
NO_CHARGES


@<TRIPOS>ATOM
   1 C1            -0.0178     1.4628     0.0101 C.2     
   2 C2             0.0021    -0.0041     0.0020 C.2     
   3 C3             1.2915     1.8520    -0.0003 C.2     
   4 C4            -1.2051     2.3360     0.0207 C.2     
   5 C5             1.3115    -0.3567    -0.0124 C.2     
   6 O6             2.0622     0.7601    -0.0135 O.3     
   7 O7            -1.0710     3.5447     0.0262 O.2     
   8 N8            -2.4395     1.7950     0.0244 N.am    
   9 C9             1.8294    -1.7414    -0.0248 C.ar    
  10 C10           -3.5586     2.6180     0.0345 C.2     
  11 S11           -3.5168     4.3248     0.0355 S.3     
  12 N12           -4.7797     2.2038     0.0387 N.2     
  13 C13           -5.2817     4.3796     0.0493 C.2     
  14 C14           -5.7474     3.1265     0.0483 C.2     
  15 H15           -2.5465     0.8309     0.0201 H       
  16 C16            2.7926    -2.1210    -0.9605 C.ar    
  17 C17            3.2717    -3.4149    -0.9667 C.ar    
  18 C18            2.7994    -4.3350    -0.0480 C.ar    
  19 C19            1.8444    -3.9651     0.8825 C.ar    
  20 C20            1.3613    -2.6732     0.9032 C.ar    
  21 C21            1.7850     3.2759     0.0018 C.3     
  22 C22           -7.2735     3.1447     0.0625 C.3     
  23 C23           -7.6617     4.5718    -0.3741 C.3     
  24 C24           -6.4220     5.3809     0.0576 C.3     
  25 N25            3.2987    -1.1378    -1.9446 N.pl3   
  26 O26            4.1394    -1.4705    -2.7607 O.2     
  27 O27            2.8745     0.0040    -1.9382 O.2     
  28 H28           -0.8507    -0.6668     0.0069 H       
  29 H29            4.0169    -3.7101    -1.6906 H       
  30 H30            3.1775    -5.3466    -0.0573 H       
  31 H31            1.4795    -4.6883     1.5968 H       
  32 H32            0.6159    -2.3857     1.6299 H       
  33 H33            1.9136     3.6143     1.0300 H       
  34 H34            2.7400     3.3303    -0.5207 H       
  35 H35            1.0582     3.9131    -0.5022 H       
  36 H36           -7.6674     2.4128    -0.6426 H       
  37 H37           -7.6452     2.9419     1.0670 H       
  38 H38           -7.8031     4.6247    -1.4536 H       
  39 H39           -8.5538     4.9117     0.1519 H       
  40 H40           -6.5620     5.7834     1.0608 H       
  41 H41           -6.2285     6.1858    -0.6515 H       
@<TRIPOS>BOND
   1    1    2 1
   2    1    3 2
   3    1    4 1
   4    2    5 2
   5    2   28 1
   6    3   21 1
   7    3    6 1
   8    4    7 2
   9    4    8 am
  10    5    9 1
  11    5    6 1
  12    8   15 1
  13    8   10 1
  14    9   16 ar
  15    9   20 ar
  16   10   12 2
  17   10   11 1
  18   11   13 1
  19   12   14 1
  20   13   14 2
  21   13   24 1
  22   14   22 1
  23   16   17 ar
  24   16   25 1
  25   17   18 ar
  26   17   29 1
  27   18   19 ar
  28   18   30 1
  29   19   20 ar
  30   19   31 1
  31   20   32 1
  32   21   33 1
  33   21   34 1
  34   21   35 1
  35   22   23 1
  36   22   36 1
  37   22   37 1
  38   23   24 1
  39   23   38 1
  40   23   39 1
  41   24   40 1
  42   24   41 1
  43   25   26 2
  44   25   27 2

#	End of record

