#	Name: ASD01900642
#	Creating user name:	WinNT
#	Creation time:	15. 06. 2019 19:52

#	Modifying user name:	WinNT
#	Modification time:	15. 06. 2019 19:52

#	Program:	/corina/corina34_cracker 3.40 0067  02.08.2006

@<TRIPOS>MOLECULE
ASD01900642
  36   39    0    0    0
SMALL
NO_CHARGES


@<TRIPOS>ATOM
   1 C1            -0.0185     1.4163     0.1361 C.ar    
   2 C2            -0.0085     0.0184     0.1250 C.ar    
   3 C3             1.1978    -0.6774     0.0644 C.ar    
   4 C4             2.3948     0.0188     0.0146 C.ar    
   5 C5             2.3731     1.4217     0.0305 C.ar    
   6 O6             3.5698    -0.6432    -0.0561 O.3     
   7 C7             4.7417    -0.0327     0.1906 C.2     
   8 C8             4.8740     1.3141     0.2219 C.2     
   9 C9             3.6726     2.1384    -0.0105 C.2     
  10 C10            5.9349    -0.8664     0.4386 C.ar    
  11 N11            7.1068    -0.2740     0.6854 N.ar    
  12 C12            8.2054    -0.9491     0.9139 C.ar    
  13 C13            8.1875    -2.3550     0.9064 C.ar    
  14 C14            6.9613    -3.0236     0.6482 C.ar    
  15 C15            5.8145    -2.2471     0.4161 C.ar    
  16 C16            9.3444    -3.1116     1.1459 C.ar    
  17 C17            9.2740    -4.4720     1.1272 C.ar    
  18 C18            8.0705    -5.1273     0.8738 C.ar    
  19 C19            6.9266    -4.4265     0.6368 C.ar    
  20 C20            1.1686     2.1137     0.0889 C.ar    
  21 C21           -1.2445    -0.7029     0.1767 C.1     
  22 C22           -2.2578    -1.2942     0.2191 C.1     
  23 N23            3.7482     3.4273    -0.2392 N.2     
  24 O24            2.5868     4.1510    -0.6032 O.3     
  25 H25           -0.9569     1.9495     0.1770 H       
  26 H26            1.1995    -1.7573     0.0567 H       
  27 H27            5.8331     1.7729     0.4118 H       
  28 H28            9.1289    -0.4239     1.1084 H       
  29 H29            4.8620    -2.7151     0.2158 H       
  30 H30           10.2849    -2.6188     1.3435 H       
  31 H31           10.1659    -5.0524     1.3115 H       
  32 H32            8.0443    -6.2070     0.8652 H       
  33 H33            6.0003    -4.9464     0.4418 H       
  34 H34            1.1636     3.1936     0.0969 H       
  35 H35           -3.1641    -1.8230     0.2571 H       
  36 H36            2.7413     5.0941    -0.7512 H       
@<TRIPOS>BOND
   1    1    2 ar
   2    1   20 ar
   3    1   25 1
   4    2    3 ar
   5    2   21 1
   6    3    4 ar
   7    3   26 1
   8    4    5 ar
   9    4    6 1
  10    5   20 ar
  11    5    9 1
  12    6    7 1
  13    7    8 2
  14    7   10 1
  15    8    9 1
  16    8   27 1
  17    9   23 2
  18   10   11 ar
  19   10   15 ar
  20   11   12 ar
  21   12   13 ar
  22   12   28 1
  23   13   14 ar
  24   13   16 ar
  25   14   15 ar
  26   14   19 ar
  27   15   29 1
  28   16   17 ar
  29   16   30 1
  30   17   18 ar
  31   17   31 1
  32   18   19 ar
  33   18   32 1
  34   19   33 1
  35   20   34 1
  36   21   22 3
  37   22   35 1
  38   23   24 1
  39   24   36 1

#	End of record

