#	Name: ASD03331365
#	Creating user name:	WinNT
#	Creation time:	15. 06. 2019 20:39

#	Modifying user name:	WinNT
#	Modification time:	15. 06. 2019 20:39

#	Program:	/corina/corina34_cracker 3.40 0067  02.08.2006

@<TRIPOS>MOLECULE
ASD03331365
  61   63    0    0    0
SMALL
NO_CHARGES


@<TRIPOS>ATOM
   1 C1             0.0951     1.1573    -0.0732 C.3     
   2 C2             0.0816    -0.3224     0.2171 C.2     
   3 C3             1.1544    -1.1291     0.0332 C.2     
   4 C4             2.4813    -0.6347    -0.4877 C.3     
   5 C5             2.2549     0.7490    -1.1130 C.3     
   6 N6             1.4975     1.5944    -0.1802 N.3     
   7 N7            -0.4697    -2.4037     0.7976 N.2     
   8 N8            -0.9357    -1.0844     0.6867 N.am    
   9 C9             0.7881    -2.4317     0.4049 C.2     
  10 C10           -2.1748    -0.6521     0.9937 C.2     
  11 O11           -2.4606     0.5206     0.8554 O.2     
  12 N12           -3.0967    -1.5207     1.4540 N.am    
  13 C13            1.6624    -3.6294     0.3627 C.ar    
  14 C14            1.1864    -4.8249    -0.1777 C.ar    
  15 C15            2.0047    -5.9380    -0.2153 C.ar    
  16 C16            3.2951    -5.8683     0.2822 C.ar    
  17 C17            3.7725    -4.6819     0.8204 C.ar    
  18 C18            2.9633    -3.5626     0.8573 C.ar    
  19 F19            5.0321    -4.6197     1.3048 F       
  20 F20            4.0915    -6.9589     0.2439 F       
  21 F21           -0.0726    -4.8940    -0.6630 F       
  22 C22            1.5800     3.0094    -0.5665 C.3     
  23 C23           -5.0614    -1.9768     2.8036 C.2     
  24 C24           -4.4436    -1.0508     1.7877 C.3     
  25 C25           -5.3053    -1.0329     0.5235 C.3     
  26 C26           -5.3464    -2.4359    -0.0856 C.3     
  27 O27           -4.5980    -3.0843     2.9755 O.2     
  28 C28           -6.7256    -0.5902     0.8806 C.3     
  29 C29           -4.7055    -0.0549    -0.4887 C.3     
  30 N30           -6.1289    -1.5741     3.5211 N.am    
  31 C31           -6.7780    -2.5011     4.4515 C.3     
  32 C32           -7.9542    -1.7992     5.1332 C.3     
  33 O33           -8.9500    -1.4829     4.1584 O.3     
  34 H34           -0.4232     1.3523    -1.0121 H       
  35 H35           -0.3967     1.6953     0.7372 H       
  36 H36            3.1940    -0.5565     0.3333 H       
  37 H37            2.8610    -1.3231    -1.2426 H       
  38 H38            3.2180     1.2138    -1.3239 H       
  39 H39            1.6939     0.6404    -2.0412 H       
  40 H40           -2.8685    -2.4570     1.5644 H       
  41 H41            1.6371    -6.8636    -0.6330 H       
  42 H42            3.3372    -2.6383     1.2724 H       
  43 H43            1.0796     3.6207     0.1845 H       
  44 H44            2.6263     3.3060    -0.6382 H       
  45 H45            1.0950     3.1512    -1.5323 H       
  46 H46           -4.3851    -0.0443     2.2018 H       
  47 H47           -5.7737    -3.1327     0.6355 H       
  48 H48           -5.9602    -2.4231    -0.9862 H       
  49 H49           -4.3345    -2.7513    -0.3400 H       
  50 H50           -6.7020     0.4282     1.2683 H       
  51 H51           -7.3520    -0.6252    -0.0107 H       
  52 H52           -7.1346    -1.2582     1.6387 H       
  53 H53           -3.6936    -0.3703    -0.7431 H       
  54 H54           -5.3194    -0.0421    -1.3893 H       
  55 H55           -4.6762     0.9446    -0.0547 H       
  56 H56           -6.4674    -0.6706     3.4215 H       
  57 H57           -7.1416    -3.3705     3.9038 H       
  58 H58           -6.0593    -2.8214     5.2059 H       
  59 H59           -8.3819    -2.4580     5.8890 H       
  60 H60           -7.6049    -0.8817     5.6067 H       
  61 H61           -9.7268    -1.0351     4.5206 H       
@<TRIPOS>BOND
   1    1    2 1
   2    1    6 1
   3    1   34 1
   4    1   35 1
   5    2    3 2
   6    2    8 1
   7    3    4 1
   8    3    9 1
   9    4    5 1
  10    4   36 1
  11    4   37 1
  12    5    6 1
  13    5   38 1
  14    5   39 1
  15    6   22 1
  16    7    8 1
  17    7    9 2
  18    8   10 am
  19    9   13 1
  20   10   11 2
  21   10   12 am
  22   12   24 1
  23   12   40 1
  24   13   14 ar
  25   13   18 ar
  26   14   15 ar
  27   14   21 1
  28   15   16 ar
  29   15   41 1
  30   16   17 ar
  31   16   20 1
  32   17   18 ar
  33   17   19 1
  34   18   42 1
  35   22   43 1
  36   22   44 1
  37   22   45 1
  38   23   27 2
  39   23   30 am
  40   23   24 1
  41   24   25 1
  42   24   46 1
  43   25   26 1
  44   25   28 1
  45   25   29 1
  46   26   47 1
  47   26   48 1
  48   26   49 1
  49   28   50 1
  50   28   51 1
  51   28   52 1
  52   29   53 1
  53   29   54 1
  54   29   55 1
  55   30   31 1
  56   30   56 1
  57   31   32 1
  58   31   57 1
  59   31   58 1
  60   32   33 1
  61   32   59 1
  62   32   60 1
  63   33   61 1

#	End of record

