#	Name: ASD03731773
#	Creating user name:	WinNT
#	Creation time:	15. 06. 2019 20:46

#	Modifying user name:	WinNT
#	Modification time:	15. 06. 2019 20:46

#	Program:	/corina/corina34_cracker 3.40 0067  02.08.2006

@<TRIPOS>MOLECULE
ASD03731773
  37   38    0    0    0
SMALL
NO_CHARGES


@<TRIPOS>ATOM
   1 C1             0.3765     1.0888     1.9841 C.2     
   2 C2             0.2926    -0.2840     1.4565 C.ar    
   3 C3             1.3792    -0.8403     0.7652 C.ar    
   4 C4             1.2920    -2.1324     0.2728 C.ar    
   5 C5             0.1320    -2.8717     0.4643 C.ar    
   6 C6            -0.9456    -2.3200     1.1499 C.ar    
   7 C7            -0.8683    -1.0397     1.6480 C.ar    
   8 O8             1.3891     1.7422     1.8206 O.2     
   9 N9            -0.6710     1.6227     2.6430 N.am    
  10 S10           -0.5767     3.1660     3.2361 S.o2    
  11 O11           -1.8284     3.3724     3.8764 O.2     
  12 O12            0.6364     3.1836     3.9758 O.2     
  13 C13           -0.4371     4.2105     1.7596 C.3     
  14 O14            2.5114    -0.1154     0.5791 O.3     
  15 C15            3.5202    -0.2177     1.5861 C.3     
  16 F16            2.3351    -2.6731    -0.3941 F       
  17 O17            0.0491    -4.1373    -0.0196 O.3     
  18 C18           -1.1393    -4.7868     0.0928 C.ar    
  19 C19           -2.0933    -4.6680    -0.9078 C.ar    
  20 C20           -3.3011    -5.3299    -0.7915 C.ar    
  21 C21           -3.5590    -6.1107     0.3231 C.ar    
  22 C22           -2.6088    -6.2294     1.3212 C.ar    
  23 C23           -1.3979    -5.5741     1.2055 C.ar    
  24 Cl24          -5.0768    -6.9409     0.4677 Cl      
  25 Cl25          -4.4955    -5.1820    -2.0427 Cl      
  26 H26           -1.8448    -2.9003     1.2950 H       
  27 H27           -1.7056    -0.6171     2.1834 H       
  28 H28           -1.4802     1.1030     2.7699 H       
  29 H29           -1.3158     4.0694     1.1302 H       
  30 H30           -0.3691     5.2563     2.0594 H       
  31 H31            0.4575     3.9336     1.2018 H       
  32 H32            4.3692     0.4098     1.3150 H       
  33 H33            3.1142     0.1134     2.5419 H       
  34 H34            3.8465    -1.2544     1.6695 H       
  35 H35           -1.8923    -4.0586    -1.7764 H       
  36 H36           -2.8119    -6.8384     2.1898 H       
  37 H37           -0.6548    -5.6709     1.9832 H       
@<TRIPOS>BOND
   1    1    2 1
   2    1    8 2
   3    1    9 am
   4    2    3 ar
   5    2    7 ar
   6    3    4 ar
   7    3   14 1
   8    4    5 ar
   9    4   16 1
  10    5    6 ar
  11    5   17 1
  12    6    7 ar
  13    6   26 1
  14    7   27 1
  15    9   10 am
  16    9   28 1
  17   10   11 2
  18   10   12 2
  19   10   13 1
  20   13   29 1
  21   13   30 1
  22   13   31 1
  23   14   15 1
  24   15   32 1
  25   15   33 1
  26   15   34 1
  27   17   18 1
  28   18   19 ar
  29   18   23 ar
  30   19   20 ar
  31   19   35 1
  32   20   21 ar
  33   20   25 1
  34   21   22 ar
  35   21   24 1
  36   22   23 ar
  37   22   36 1
  38   23   37 1

#	End of record

