#	Name: ASD03430751
#	Creating user name:	WinNT
#	Creation time:	15. 06. 2019 20:41

#	Modifying user name:	WinNT
#	Modification time:	15. 06. 2019 20:41

#	Program:	/corina/corina34_cracker 3.40 0067  02.08.2006

@<TRIPOS>MOLECULE
ASD03430751
  35   38    0    0    0
SMALL
NO_CHARGES


@<TRIPOS>ATOM
   1 C1            -0.0167     1.3787     0.0096 C.ar    
   2 C2             0.0021    -0.0041     0.0020 C.ar    
   3 C3             1.2031    -0.6798    -0.0139 C.ar    
   4 C4             2.4072     0.0186    -0.0094 C.ar    
   5 C5             2.3784     1.4104    -0.0069 C.ar    
   6 C6             1.1739     2.0822     0.0020 C.ar    
   7 O7             3.4717    -0.8321     0.0054 O.3     
   8 C8             1.5554    -2.1423    -0.0523 C.3     
   9 C9             3.0435    -2.1370    -0.4294 C.3     
  10 C10            0.4313    -3.8687     0.9851 C.ar    
  11 C11            1.3126    -2.8261     1.2602 C.ar    
  12 C12            0.7310    -2.8996    -1.0540 C.2     
  13 N13            0.1109    -3.8846    -0.3745 N.am    
  14 O14            0.6408    -2.6694    -2.2415 O.2     
  15 C15            1.7671    -2.6135     2.5426 C.ar    
  16 C16            1.3507    -3.4393     3.5715 C.ar    
  17 C17            0.4769    -4.4788     3.3094 C.ar    
  18 C18            0.0184    -4.6959     2.0268 C.ar    
  19 C19            1.1551     3.5891     0.0031 C.3     
  20 C20           -1.3306     2.1167     0.0198 C.3     
  21 H21           -0.9265    -0.5556     0.0089 H       
  22 H22            3.3039     1.9670    -0.0120 H       
  23 H23            3.1701    -2.2468    -1.5065 H       
  24 H24            3.5812    -2.9192     0.1063 H       
  25 H25           -0.4879    -4.5298    -0.7821 H       
  26 H26            2.4491    -1.8010     2.7454 H       
  27 H27            1.7075    -3.2728     4.5772 H       
  28 H28            0.1524    -5.1238     4.1126 H       
  29 H29           -0.6638    -5.5097     1.8297 H       
  30 H30            1.1575     3.9518     1.0310 H       
  31 H31            2.0370     3.9638    -0.5165 H       
  32 H32            0.2572     3.9416    -0.5045 H       
  33 H33           -1.6425     2.2890     1.0499 H       
  34 H34           -1.2139     3.0734    -0.4893 H       
  35 H35           -2.0856     1.5215    -0.4937 H       
@<TRIPOS>BOND
   1    1    2 ar
   2    1    6 ar
   3    1   20 1
   4    2    3 ar
   5    2   21 1
   6    3    4 ar
   7    3    8 1
   8    4    5 ar
   9    4    7 1
  10    5    6 ar
  11    5   22 1
  12    6   19 1
  13    7    9 1
  14    8    9 1
  15    8   11 1
  16    8   12 1
  17    9   23 1
  18    9   24 1
  19   10   11 ar
  20   10   13 1
  21   10   18 ar
  22   11   15 ar
  23   12   13 am
  24   12   14 2
  25   13   25 1
  26   15   16 ar
  27   15   26 1
  28   16   17 ar
  29   16   27 1
  30   17   18 ar
  31   17   28 1
  32   18   29 1
  33   19   30 1
  34   19   31 1
  35   19   32 1
  36   20   33 1
  37   20   34 1
  38   20   35 1

#	End of record

