#	Name: ASD02508207
#	Creating user name:	WinNT
#	Creation time:	15. 06. 2019 20:24

#	Modifying user name:	WinNT
#	Modification time:	15. 06. 2019 20:24

#	Program:	/corina/corina34_cracker 3.40 0067  02.08.2006

@<TRIPOS>MOLECULE
ASD02508207
  39   42    0    0    0
SMALL
NO_CHARGES


@<TRIPOS>ATOM
   1 C1             0.2485     0.6122    -0.3443 C.ar    
   2 C2             0.0013    -0.7455    -0.5453 C.ar    
   3 C3            -1.2921    -1.2322    -0.4366 C.ar    
   4 C4            -2.3283    -0.3719    -0.1302 C.ar    
   5 C5            -2.0820     0.9755     0.0687 C.ar    
   6 C6            -0.7957     1.4687    -0.0321 C.ar    
   7 S7            -3.9716    -0.9925     0.0076 S.o2    
   8 N8            -4.2470    -1.2990     1.6115 N.am    
   9 C9            -3.4658    -2.2425     2.2877 C.ar    
  10 N10            1.6198     0.7975    -0.5176 N.am    
  11 C11            2.1573    -0.4036    -0.8089 C.2     
  12 O12            1.1897    -1.3338    -0.8269 O.3     
  13 O13           -4.8359     0.0770    -0.3508 O.2     
  14 O14           -3.9810    -2.2527    -0.6491 O.2     
  15 C15            2.3438     2.0660    -0.4037 C.3     
  16 O16            3.3360    -0.6124    -1.0224 O.2     
  17 C17           -2.9426    -1.9432     3.5381 C.ar    
  18 C18           -3.2183    -3.4808     1.7111 C.ar    
  19 C19           -2.4487    -4.4138     2.3797 C.ar    
  20 C20           -1.9217    -4.1169     3.6273 C.ar    
  21 C21           -2.1696    -2.8785     4.2083 C.ar    
  22 O22           -1.1720    -5.0522     4.2747 O.3     
  23 C23           -0.3524    -4.5868     5.3524 C.3     
  24 C24           -1.1983    -3.6575     6.2333 C.3     
  25 O25           -1.6547    -2.5663     5.4291 O.3     
  26 H26           -1.4894    -2.2826    -0.5916 H       
  27 H27           -2.8973     1.6425     0.3074 H       
  28 H28           -0.6052     2.5203     0.1238 H       
  29 H29           -4.9499    -0.8243     2.0822 H       
  30 H30            2.6737     2.2049     0.6259 H       
  31 H31            3.2109     2.0500    -1.0640 H       
  32 H32            1.6856     2.8869    -0.6883 H       
  33 H33           -3.1376    -0.9813     3.9888 H       
  34 H34           -3.6276    -3.7153     0.7396 H       
  35 H35           -2.2576    -5.3767     1.9295 H       
  36 H36           -0.0037    -5.4349     5.9417 H       
  37 H37            0.5018    -4.0390     4.9545 H       
  38 H38           -2.0560    -4.2035     6.6261 H       
  39 H39           -0.5929    -3.2805     7.0575 H       
@<TRIPOS>BOND
   1    1    2 ar
   2    1   10 1
   3    1    6 ar
   4    2    3 ar
   5    2   12 1
   6    3    4 ar
   7    3   26 1
   8    4    5 ar
   9    4    7 1
  10    5    6 ar
  11    5   27 1
  12    6   28 1
  13    7    8 am
  14    7   13 2
  15    7   14 2
  16    8    9 1
  17    8   29 1
  18    9   17 ar
  19    9   18 ar
  20   10   11 am
  21   10   15 1
  22   11   12 1
  23   11   16 2
  24   15   30 1
  25   15   31 1
  26   15   32 1
  27   17   21 ar
  28   17   33 1
  29   18   19 ar
  30   18   34 1
  31   19   20 ar
  32   19   35 1
  33   20   21 ar
  34   20   22 1
  35   21   25 1
  36   22   23 1
  37   23   24 1
  38   23   36 1
  39   23   37 1
  40   24   25 1
  41   24   38 1
  42   24   39 1

#	End of record

