#	Name: ASD03910137
#	Creating user name:	WinNT
#	Creation time:	15. 06. 2019 20:47

#	Modifying user name:	WinNT
#	Modification time:	15. 06. 2019 20:47

#	Program:	/corina/corina34_cracker 3.40 0067  02.08.2006

@<TRIPOS>MOLECULE
ASD03910137
  54   54    0    0    0
SMALL
NO_CHARGES


@<TRIPOS>ATOM
   1 P1            -0.0198     1.6058     0.0109 P.3     
   2 P2            -0.1068    -1.6600     5.3274 P.3     
   3 P3             1.7843    -2.4995    -1.9629 P.3     
   4 P4             1.6973    -5.7653     3.3537 P.3     
   5 P5             4.8253    -3.1765     1.8183 P.3     
   6 P6            -3.1478    -0.9831     1.5462 P.3     
   7 O7            -1.6484    -0.8748     2.1225 O.3     
   8 O8             0.0021    -0.0041     0.0020 O.3     
   9 O9             0.4709    -1.6427     3.8248 O.3     
  10 O10            1.2066    -2.5169    -0.4602 O.3     
  11 O11            1.6754    -4.1555     3.3625 O.3     
  12 O12            3.3259    -3.2848     1.2420 O.3     
  13 O13            3.3279    -2.9569    -1.9497 O.3     
  14 O14           -3.7534    -2.4334     1.8952 O.3     
  15 O15            2.6690    -6.2824     2.1787 O.3     
  16 O16            2.2372    -6.3025     4.7721 O.3     
  17 O17            4.8413    -3.6344     3.3618 O.3     
  18 O18            5.7989    -4.1332     0.9645 O.3     
  19 O19            0.9318    -3.5140    -2.8774 O.3     
  20 O20            0.7457    -0.6456     6.2419 O.3     
  21 O21           -1.6504    -1.2027     5.3143 O.3     
  22 O22            1.4907     2.1630    -0.0006 O.3     
  23 O23           -0.7984     2.1391    -1.2935 O.3     
  24 O24           -4.0647     0.1571     2.2180 O.3     
  25 O25            1.6800    -1.1306    -2.5158 O.2     
  26 O26            5.2939    -1.7765     1.7142 O.2     
  27 O27            0.3277    -6.2760     3.1217 O.2     
  28 O28           -0.7125     2.0831     1.2285 O.2     
  29 O29           -3.1266    -0.7976     0.0780 O.2     
  30 O30           -0.0025    -3.0289     5.8803 O.2     
  31 C31           -0.5706    -1.6820     1.6443 C.3     
  32 C32            0.5294    -0.7812     1.0790 C.3     
  33 C33           -0.0059    -2.5141     2.7975 C.3     
  34 C34            1.6834    -1.6455     0.5670 C.3     
  35 C35            1.1481    -3.3783     2.2855 C.3     
  36 C36            2.2481    -2.4776     1.7202 C.3     
  37 H37           -0.9343    -2.3467     0.8608 H       
  38 H38            0.8932    -0.1165     1.8626 H       
  39 H39           -0.7896    -3.1558     3.2002 H       
  40 H40            2.4671    -1.0038     0.1643 H       
  41 H41            0.7843    -4.0430     1.5019 H       
  42 H42            2.6118    -1.8129     2.5038 H       
  43 H43           -1.7941    -0.3130     4.9636 H       
  44 H44            6.7204    -4.1183     1.2570 H       
  45 H45            4.5455    -4.5437     3.5053 H       
  46 H46            2.2771    -7.2664     4.8383 H       
  47 H47            3.5850    -5.9851     2.2665 H       
  48 H48            3.4716    -3.8465    -1.5991 H       
  49 H49            1.2251    -3.5549    -3.7979 H       
  50 H50            0.4524    -0.6046     7.1624 H       
  51 H51            2.0052     1.8889    -0.7720 H       
  52 H52           -0.8503     3.1028    -1.3539 H       
  53 H53           -3.7973    -2.6238     2.8422 H       
  54 H54           -4.9834     0.1515     1.9164 H       
@<TRIPOS>BOND
   1    1    8 1
   2    1   22 1
   3    1   23 1
   4    1   28 2
   5    2    9 1
   6    2   20 1
   7    2   21 1
   8    2   30 2
   9    3   10 1
  10    3   13 1
  11    3   19 1
  12    3   25 2
  13    4   11 1
  14    4   15 1
  15    4   16 1
  16    4   27 2
  17    5   12 1
  18    5   17 1
  19    5   18 1
  20    5   26 2
  21    6    7 1
  22    6   14 1
  23    6   24 1
  24    6   29 2
  25    7   31 1
  26    8   32 1
  27    9   33 1
  28   10   34 1
  29   11   35 1
  30   12   36 1
  31   13   48 1
  32   14   53 1
  33   15   47 1
  34   16   46 1
  35   17   45 1
  36   18   44 1
  37   19   49 1
  38   20   50 1
  39   21   43 1
  40   22   51 1
  41   23   52 1
  42   24   54 1
  43   31   32 1
  44   31   33 1
  45   31   37 1
  46   32   34 1
  47   32   38 1
  48   33   35 1
  49   33   39 1
  50   34   36 1
  51   34   40 1
  52   35   36 1
  53   35   41 1
  54   36   42 1

#	End of record

