#	Name: ASD01911464
#	Creating user name:	WinNT
#	Creation time:	15. 06. 2019 19:57

#	Modifying user name:	WinNT
#	Modification time:	15. 06. 2019 19:57

#	Program:	/corina/corina34_cracker 3.40 0067  02.08.2006

@<TRIPOS>MOLECULE
ASD01911464
  39   41    0    0    0
SMALL
NO_CHARGES


@<TRIPOS>ATOM
   1 N1            -0.0068     1.4097    -0.0031 N.2     
   2 N2            -0.0072     0.0098    -0.0452 N.pl3   
   3 C3             1.2421     1.8243     0.0384 C.2     
   4 C4             2.0818     0.6979     0.0241 C.2     
   5 C5             1.2897    -0.4114    -0.0277 C.2     
   6 C6             1.7534    -1.8165    -0.0592 C.ar    
   7 C7             1.6869     3.2395     0.0914 C.ar    
   8 C8            -1.1919    -0.8504    -0.0987 C.3     
   9 C9            -1.6289    -1.0150    -1.5315 C.2     
  10 O10           -2.7014    -1.7674    -1.8238 O.3     
  11 O11           -1.0139    -0.4698    -2.4171 O.2     
  12 C12            0.7465     4.2667     0.1009 C.ar    
  13 C13            3.0461     3.5429     0.1374 C.ar    
  14 C14            3.4582     4.8594     0.1875 C.ar    
  15 C15            2.5240     5.8807     0.1917 C.ar    
  16 C16            1.1665     5.5851     0.1508 C.ar    
  17 C17            0.9279    -2.8150    -0.5763 C.ar    
  18 C18            1.3662    -4.1231    -0.6034 C.ar    
  19 C19            2.6213    -4.4452    -0.1190 C.ar    
  20 C20            3.4445    -3.4596     0.3956 C.ar    
  21 C21            3.0200    -2.1469     0.4228 C.ar    
  22 O22            0.2513     6.5904     0.1551 O.3     
  23 F23            2.9323     7.1676     0.2413 F       
  24 C24           -1.1265     6.2137     0.1115 C.3     
  25 H25            3.1615     0.7085     0.0495 H       
  26 H26           -0.9514    -1.8266     0.3223 H       
  27 H27           -1.9978    -0.3950     0.4769 H       
  28 H28           -2.9432    -1.8433    -2.7570 H       
  29 H29           -0.3079     4.0354     0.0691 H       
  30 H30            3.7772     2.7480     0.1343 H       
  31 H31            4.5120     5.0931     0.2239 H       
  32 H32           -0.0523    -2.5648    -0.9545 H       
  33 H33            0.7279    -4.8971    -1.0032 H       
  34 H34            2.9599    -5.4705    -0.1423 H       
  35 H35            4.4232    -3.7174     0.7725 H       
  36 H36            3.6637    -1.3783     0.8244 H       
  37 H37           -1.3193     5.6460    -0.7988 H       
  38 H38           -1.3627     5.5990     0.9800 H       
  39 H39           -1.7483     7.1089     0.1200 H       
@<TRIPOS>BOND
   1    1    2 1
   2    1    3 2
   3    2    8 1
   4    2    5 1
   5    3    4 1
   6    3    7 1
   7    4    5 2
   8    4   25 1
   9    5    6 1
  10    6   17 ar
  11    6   21 ar
  12    7   12 ar
  13    7   13 ar
  14    8    9 1
  15    8   26 1
  16    8   27 1
  17    9   10 1
  18    9   11 2
  19   10   28 1
  20   12   16 ar
  21   12   29 1
  22   13   14 ar
  23   13   30 1
  24   14   15 ar
  25   14   31 1
  26   15   16 ar
  27   15   23 1
  28   16   22 1
  29   17   18 ar
  30   17   32 1
  31   18   19 ar
  32   18   33 1
  33   19   20 ar
  34   19   34 1
  35   20   21 ar
  36   20   35 1
  37   21   36 1
  38   22   24 1
  39   24   37 1
  40   24   38 1
  41   24   39 1

#	End of record

