#	Name: ASD01150971
#	Creating user name:	WinNT
#	Creation time:	15. 06. 2019 19:05

#	Modifying user name:	WinNT
#	Modification time:	15. 06. 2019 19:05

#	Program:	/corina/corina34_cracker 3.40 0067  02.08.2006

@<TRIPOS>MOLECULE
ASD01150971
  32   32    0    0    0
SMALL
NO_CHARGES


@<TRIPOS>ATOM
   1 N1            -0.0178     1.4608     0.0101 N.am    
   2 C2             0.0021    -0.0041     0.0020 C.3     
   3 C3            -1.2729    -0.5271     0.6119 C.2     
   4 C4             0.1165    -0.4856    -1.3843 C.1     
   5 N5             0.2048    -0.8572    -2.4541 N.1     
   6 O6            -1.4763    -1.8502     0.7104 O.3     
   7 O7            -2.1121     0.2446     1.0122 O.2     
   8 C8            -2.7269    -2.2822     1.3085 C.3     
   9 C9            -2.7784    -3.8111     1.3346 C.3     
  10 C10            1.1401     2.1505     0.0027 C.2     
  11 C11            1.1197     3.6573     0.0110 C.3     
  12 O12            2.1985     1.5584    -0.0106 O.2     
  13 C13            2.5580     4.2040     0.0002 C.3     
  14 C14            2.7007     5.0435    -1.2862 C.3     
  15 C15            1.2482     5.4520    -1.6363 C.3     
  16 C16            0.4385     4.1836    -1.2692 C.3     
  17 H17           -0.8643     1.9343     0.0167 H       
  18 H18            0.8543    -0.3591     0.5815 H       
  19 H19           -2.7941    -1.8990     2.3267 H       
  20 H20           -3.5617    -1.9005     0.7207 H       
  21 H21           -2.7111    -4.1944     0.3164 H       
  22 H22           -1.9436    -4.1928     1.9224 H       
  23 H23           -3.7172    -4.1354     1.7836 H       
  24 H24            0.5896     4.0184     0.8923 H       
  25 H25            2.7256     4.8312     0.8758 H       
  26 H26            3.2708     3.3795    -0.0110 H       
  27 H27            3.3110     5.9271    -1.0993 H       
  28 H28            3.1319     4.4434    -2.0874 H       
  29 H29            0.9297     6.3017    -1.0325 H       
  30 H30            1.1553     5.6754    -2.6991 H       
  31 H31            0.5044     3.4446    -2.0677 H       
  32 H32           -0.6020     4.4397    -1.0700 H       
@<TRIPOS>BOND
   1    1    2 1
   2    1   10 am
   3    1   17 1
   4    2    3 1
   5    2    4 1
   6    2   18 1
   7    3    6 1
   8    3    7 2
   9    4    5 3
  10    6    8 1
  11    8    9 1
  12    8   19 1
  13    8   20 1
  14    9   21 1
  15    9   22 1
  16    9   23 1
  17   10   11 1
  18   10   12 2
  19   11   13 1
  20   11   16 1
  21   11   24 1
  22   13   14 1
  23   13   25 1
  24   13   26 1
  25   14   15 1
  26   14   27 1
  27   14   28 1
  28   15   16 1
  29   15   29 1
  30   15   30 1
  31   16   31 1
  32   16   32 1

#	End of record

