#	Name: ASD03180085
#	Creating user name:	WinNT
#	Creation time:	15. 06. 2019 20:33

#	Modifying user name:	WinNT
#	Modification time:	15. 06. 2019 20:33

#	Program:	/corina/corina34_cracker 3.40 0067  02.08.2006

@<TRIPOS>MOLECULE
ASD03180085
  45   48    0    0    0
SMALL
NO_CHARGES


@<TRIPOS>ATOM
   1 C1            -0.0143     1.4196     0.2348 C.ar    
   2 C2            -1.2888    -0.1644     1.5066 C.ar    
   3 C3            -2.3845     0.0681     0.6951 C.ar    
   4 C4            -2.2949     0.9665    -0.3521 C.ar    
   5 C5            -1.1149     1.6468    -0.5814 C.ar    
   6 C6            -0.1046     0.5083     1.2797 C.ar    
   7 C7            -1.0219     2.6347    -1.7157 C.3     
   8 N8             1.1830     2.1019     0.0021 N.pl3   
   9 C9             2.3922     1.4303     0.0915 C.2     
  10 N10            3.5630     1.9819     0.0070 N.2     
  11 S11            2.5758    -0.3024     0.3451 S.3     
  12 C12            4.3284    -0.1264     0.3056 C.2     
  13 C13            4.6183     1.1750     0.1165 C.2     
  14 C14            6.0076     1.6735     0.0385 C.2     
  15 S15            7.4673     0.6943     0.1692 S.3     
  16 C16            8.4517     2.1400    -0.0406 C.2     
  17 N17            7.6719     3.1739    -0.1827 N.2     
  18 C18            6.3801     2.9589    -0.1513 C.2     
  19 C19            5.3761     4.0714    -0.3109 C.3     
  20 C20            9.9288     2.1745    -0.0529 C.ar    
  21 C21           10.6591     0.9951     0.1047 C.ar    
  22 C22           10.6004     3.3859    -0.2280 C.ar    
  23 C23           11.9796     3.4111    -0.2384 C.ar    
  24 C24           12.6972     2.2393    -0.0764 C.ar    
  25 C25           12.0379     1.0345     0.0923 C.ar    
  26 C26           -3.6752    -0.6684     0.9455 C.3     
  27 H27           -1.3622    -0.8665     2.3239 H       
  28 H28           -3.1523     1.1457    -0.9838 H       
  29 H29            0.7507     0.3261     1.9135 H       
  30 H30           -1.3103     3.6240    -1.3604 H       
  31 H31            0.0025     2.6662    -2.0869 H       
  32 H32           -1.6906     2.3283    -2.5201 H       
  33 H33            1.1678     3.0456    -0.2221 H       
  34 H34            5.0471    -0.9247     0.4180 H       
  35 H35            5.1376     4.4887     0.6674 H       
  36 H36            5.7960     4.8513    -0.9461 H       
  37 H37            4.4686     3.6787    -0.7695 H       
  38 H38           10.1457     0.0541     0.2364 H       
  39 H39           10.0413     4.3012    -0.3552 H       
  40 H40           12.5003     4.3475    -0.3737 H       
  41 H41           13.7769     2.2645    -0.0857 H       
  42 H42           12.6041     0.1230     0.2144 H       
  43 H43           -4.2933    -0.0941     1.6356 H       
  44 H44           -4.2077    -0.7990     0.0034 H       
  45 H45           -3.4582    -1.6449     1.3786 H       
@<TRIPOS>BOND
   1    1    6 ar
   2    1    8 1
   3    1    5 ar
   4    2    3 ar
   5    2    6 ar
   6    2   27 1
   7    3    4 ar
   8    3   26 1
   9    4    5 ar
  10    4   28 1
  11    5    7 1
  12    6   29 1
  13    7   30 1
  14    7   31 1
  15    7   32 1
  16    8    9 1
  17    8   33 1
  18    9   11 1
  19    9   10 2
  20   10   13 1
  21   11   12 1
  22   12   13 2
  23   12   34 1
  24   13   14 1
  25   14   15 1
  26   14   18 2
  27   15   16 1
  28   16   17 2
  29   16   20 1
  30   17   18 1
  31   18   19 1
  32   19   35 1
  33   19   36 1
  34   19   37 1
  35   20   22 ar
  36   20   21 ar
  37   21   25 ar
  38   21   38 1
  39   22   23 ar
  40   22   39 1
  41   23   24 ar
  42   23   40 1
  43   24   25 ar
  44   24   41 1
  45   25   42 1
  46   26   43 1
  47   26   44 1
  48   26   45 1

#	End of record

