#	Name: ASD03330987
#	Creating user name:	WinNT
#	Creation time:	15. 06. 2019 20:38

#	Modifying user name:	WinNT
#	Modification time:	15. 06. 2019 20:38

#	Program:	/corina/corina34_cracker 3.40 0067  02.08.2006

@<TRIPOS>MOLECULE
ASD03330987
  53   55    0    0    0
SMALL
NO_CHARGES


@<TRIPOS>ATOM
   1 C1            -0.0992     1.1688     0.6114 C.ar    
   2 C2            -0.0837    -0.2993     0.4323 C.2     
   3 N3            -1.1668    -1.1163     0.4870 N.pl3   
   4 C4            -0.7294    -2.3921     0.2724 C.2     
   5 C5             0.6115    -2.3302     0.0887 C.2     
   6 N6             0.9803    -1.0319     0.1876 N.2     
   7 C7             1.5065    -3.4707    -0.1757 C.2     
   8 N8             2.8285    -3.2660    -0.3396 N.am    
   9 C9             0.5843     1.9923    -0.2866 C.ar    
  10 O10            1.0521    -4.5967    -0.2461 O.2     
  11 C11            3.7182    -4.3998    -0.6025 C.3     
  12 C12            3.7283    -4.7032    -2.1021 C.3     
  13 C13            5.1144    -4.0582    -0.1497 C.2     
  14 C14            4.1142    -3.4406    -2.8753 C.3     
  15 C15           -2.5738    -0.7814     0.7238 C.3     
  16 C16           -3.4282    -1.9768     0.2802 C.3     
  17 O17           -2.8979    -3.1845     0.8328 O.3     
  18 C18           -1.6447    -3.5893     0.2615 C.3     
  19 O19            5.4823    -2.9026    -0.1376 O.2     
  20 N20            5.9543    -5.0368     0.2418 N.am    
  21 C21            7.2712    -4.6975     0.7866 C.3     
  22 C22            4.7449    -5.8093    -2.3918 C.3     
  23 C23            2.3359    -5.1630    -2.5387 C.3     
  24 C24            0.5654     3.3638    -0.1137 C.ar    
  25 C25           -0.1274     3.9206     0.9451 C.ar    
  26 C26           -0.8075     3.1090     1.8394 C.ar    
  27 C27           -0.8013     1.7374     1.6746 C.ar    
  28 F28           -1.4818     3.6608     2.8719 F       
  29 F29            1.2625     1.4496    -1.3213 F       
  30 H30            3.1908    -2.3679    -0.2835 H       
  31 H31            3.3632    -5.2743    -0.0572 H       
  32 H32            5.1061    -3.1130    -2.5642 H       
  33 H33            4.1214    -3.6567    -3.9436 H       
  34 H34            3.3900    -2.6525    -2.6689 H       
  35 H35           -2.7330    -0.5885     1.7847 H       
  36 H36           -2.8451     0.1006     0.1436 H       
  37 H37           -4.4522    -1.8387     0.6274 H       
  38 H38           -3.4217    -2.0428    -0.8078 H       
  39 H39           -1.7979    -3.9282    -0.7631 H       
  40 H40           -1.2097    -4.3926     0.8562 H       
  41 H41            5.6867    -5.9659     0.1629 H       
  42 H42            7.8414    -4.1441     0.0405 H       
  43 H43            7.1482    -4.0836     1.6788 H       
  44 H44            7.8039    -5.6125     1.0458 H       
  45 H45            4.4396    -6.7250    -1.8854 H       
  46 H46            4.7924    -5.9868    -3.4662 H       
  47 H47            5.7268    -5.5041    -2.0301 H       
  48 H48            1.6117    -4.3750    -2.3323 H       
  49 H49            2.3431    -5.3792    -3.6070 H       
  50 H50            2.0610    -6.0625    -1.9879 H       
  51 H51            1.0934     4.0016    -0.8072 H       
  52 H52           -0.1385     4.9925     1.0762 H       
  53 H53           -1.3316     1.1061     2.3722 H       
@<TRIPOS>BOND
   1    1    2 1
   2    1    9 ar
   3    1   27 ar
   4    2    3 1
   5    2    6 2
   6    3    4 1
   7    3   15 1
   8    4    5 2
   9    4   18 1
  10    5    6 1
  11    5    7 1
  12    7    8 am
  13    7   10 2
  14    8   11 1
  15    8   30 1
  16    9   24 ar
  17    9   29 1
  18   11   12 1
  19   11   13 1
  20   11   31 1
  21   12   14 1
  22   12   22 1
  23   12   23 1
  24   13   19 2
  25   13   20 am
  26   14   32 1
  27   14   33 1
  28   14   34 1
  29   15   16 1
  30   15   35 1
  31   15   36 1
  32   16   17 1
  33   16   37 1
  34   16   38 1
  35   17   18 1
  36   18   39 1
  37   18   40 1
  38   20   21 1
  39   20   41 1
  40   21   42 1
  41   21   43 1
  42   21   44 1
  43   22   45 1
  44   22   46 1
  45   22   47 1
  46   23   48 1
  47   23   49 1
  48   23   50 1
  49   24   25 ar
  50   24   51 1
  51   25   26 ar
  52   25   52 1
  53   26   27 ar
  54   26   28 1
  55   27   53 1

#	End of record

