#	Name: ASD04570023
#	Creating user name:	WinNT
#	Creation time:	15. 06. 2019 20:49

#	Modifying user name:	WinNT
#	Modification time:	15. 06. 2019 20:49

#	Program:	/corina/corina34_cracker 3.40 0067  02.08.2006

@<TRIPOS>MOLECULE
ASD04570023
  51   54    0    0    0
SMALL
NO_CHARGES


@<TRIPOS>ATOM
   1 C1            -1.5153    -0.5894    -0.2993 C.3     
   2 O2            -1.0047    -1.8981    -0.0375 O.3     
   3 C3            -0.3029    -2.4976    -1.0350 C.ar    
   4 C4            -0.1048    -1.8374    -2.2390 C.ar    
   5 C5             0.6094    -2.4487    -3.2513 C.ar    
   6 C6             1.1262    -3.7176    -3.0654 C.ar    
   7 C7             1.9044    -4.3823    -4.1716 C.3     
   8 N8             3.3287    -4.0488    -4.0370 N.3     
   9 C9             3.8908    -4.6262    -2.8087 C.3     
  10 C10            5.3198    -4.1088    -2.6125 C.3     
  11 N11            6.0880    -4.3825    -3.8365 N.am    
  12 C12            5.5210    -3.9543    -5.1243 C.3     
  13 C13            4.0841    -4.4778    -5.2216 C.3     
  14 C14            7.2801    -5.0087    -3.7795 C.2     
  15 O15            7.7659    -5.2940    -2.7022 O.2     
  16 C16            7.9960    -5.3483    -5.0255 C.ar    
  17 C17            8.1702    -4.3866    -6.0306 C.ar    
  18 C18            8.8464    -4.7519    -7.1776 C.ar    
  19 C19            9.3289    -6.0512    -7.2978 C.ar    
  20 N20            9.1480    -6.9372    -6.3297 N.ar    
  21 C21            8.5146    -6.6300    -5.2179 C.ar    
  22 N22           10.0125    -6.4265    -8.4544 N.pl3   
  23 C23           10.5331    -7.6548    -8.7140 C.2     
  24 C24           11.1111    -7.6042    -9.9357 C.2     
  25 C25           10.9411    -6.3096   -10.4407 C.2     
  26 N26           10.2796    -5.6064    -9.5583 N.2     
  27 C27            0.9305    -4.3775    -1.8663 C.ar    
  28 C28            0.2216    -3.7684    -0.8490 C.ar    
  29 H29           -0.6888     0.0852    -0.5222 H       
  30 H30           -2.1931    -0.6278    -1.1521 H       
  31 H31           -2.0537    -0.2275     0.5766 H       
  32 H32           -0.5089    -0.8465    -2.3849 H       
  33 H33            0.7638    -1.9351    -4.1887 H       
  34 H34            1.7766    -5.4628    -4.1072 H       
  35 H35            1.5383    -4.0299    -5.1359 H       
  36 H36            3.2779    -4.3341    -1.9560 H       
  37 H37            3.9055    -5.7129    -2.8913 H       
  38 H38            5.2981    -3.0350    -2.4262 H       
  39 H39            5.7817    -4.6204    -1.7681 H       
  40 H40            5.5186    -2.8657    -5.1795 H       
  41 H41            6.1160    -4.3639    -5.9406 H       
  42 H42            4.0961    -5.5666    -5.2706 H       
  43 H43            3.6114    -4.0782    -6.1188 H       
  44 H44            7.7846    -3.3849    -5.9109 H       
  45 H45            8.9988    -4.0371    -7.9728 H       
  46 H46            8.3909    -7.3779    -4.4486 H       
  47 H47           10.4926    -8.5154    -8.0628 H       
  48 H48           11.6154    -8.4191   -10.4339 H       
  49 H49           11.2924    -5.9535   -11.3979 H       
  50 H50            1.3355    -5.3684    -1.7234 H       
  51 H51            0.0722    -4.2828     0.0888 H       
@<TRIPOS>BOND
   1    1    2 1
   2    1   29 1
   3    1   30 1
   4    1   31 1
   5    2    3 1
   6    3   28 ar
   7    3    4 ar
   8    4    5 ar
   9    4   32 1
  10    5    6 ar
  11    5   33 1
  12    6    7 1
  13    6   27 ar
  14    7    8 1
  15    7   34 1
  16    7   35 1
  17    8   13 1
  18    8    9 1
  19    9   10 1
  20    9   36 1
  21    9   37 1
  22   10   11 1
  23   10   38 1
  24   10   39 1
  25   11   12 1
  26   11   14 am
  27   12   13 1
  28   12   40 1
  29   12   41 1
  30   13   42 1
  31   13   43 1
  32   14   15 2
  33   14   16 1
  34   16   21 ar
  35   16   17 ar
  36   17   18 ar
  37   17   44 1
  38   18   19 ar
  39   18   45 1
  40   19   20 ar
  41   19   22 1
  42   20   21 ar
  43   21   46 1
  44   22   26 1
  45   22   23 1
  46   23   24 2
  47   23   47 1
  48   24   25 1
  49   24   48 1
  50   25   26 2
  51   25   49 1
  52   27   28 ar
  53   27   50 1
  54   28   51 1

#	End of record

