#	Name: ASD01200134
#	Creating user name:	WinNT
#	Creation time:	15. 06. 2019 19:08

#	Modifying user name:	WinNT
#	Modification time:	15. 06. 2019 19:08

#	Program:	/corina/corina34_cracker 3.40 0067  02.08.2006

@<TRIPOS>MOLECULE
ASD01200134
  52   55    0    0    0
SMALL
NO_CHARGES


@<TRIPOS>ATOM
   1 C1            -0.0167     1.3792     0.0096 C.ar    
   2 C2             0.0021    -0.0041     0.0020 C.ar    
   3 C3             1.2087    -0.6842    -0.0132 C.ar    
   4 C4             2.3920     0.0166    -0.0208 C.ar    
   5 C5             2.3846     1.4137    -0.0132 C.ar    
   6 C6             1.1648     2.0919     0.0022 C.ar    
   7 C7             3.8409    -0.4021    -0.0369 C.3     
   8 N8             4.6266     0.8371    -0.0378 N.am    
   9 C9             3.7832     1.8837    -0.0241 C.2     
  10 O10            4.1240     3.0505    -0.0207 O.2     
  11 S11            4.2232    -1.3815     1.4413 S.3     
  12 C12            6.0892     0.9201    -0.0514 C.3     
  13 C13            6.5770     0.9561    -1.4768 C.ar    
  14 C14            3.6289    -3.0373     0.9988 C.3     
  15 C15            3.8791    -3.9837     2.1445 C.2     
  16 N16            3.5169    -5.2777     2.0411 N.am    
  17 O17            4.4064    -3.5808     3.1597 O.2     
  18 C18            3.7476    -6.1507     3.0979 C.2     
  19 N19            3.4393    -7.4097     3.1019 N.2     
  20 C20            3.7318    -8.0931     4.1925 C.2     
  21 C21            4.3151    -7.3774     5.1560 C.2     
  22 S22            4.4861    -5.7217     4.5790 S.3     
  23 C23            6.7326     2.1692    -2.1222 C.ar    
  24 C24            7.1795     2.2059    -3.4284 C.ar    
  25 C25            7.4729     1.0224    -4.0939 C.ar    
  26 C26            7.3155    -0.1945    -3.4426 C.ar    
  27 C27            6.8736    -0.2236    -2.1345 C.ar    
  28 N28            7.9246     1.0558    -5.4152 N.pl3   
  29 C29            8.0895     2.3400    -6.1007 C.3     
  30 C30            8.2335    -0.1934    -6.1155 C.3     
  31 H31           -0.9607     1.9038     0.0169 H       
  32 H32           -0.9267    -0.5552     0.0083 H       
  33 H33            1.2202    -1.7641    -0.0188 H       
  34 H34            1.1457     3.1718     0.0078 H       
  35 H35            4.0535    -0.9810    -0.9357 H       
  36 H36            6.4065     1.8264     0.4643 H       
  37 H37            6.5072     0.0493     0.4538 H       
  38 H38            2.5601    -2.9956     0.7887 H       
  39 H39            4.1596    -3.3894     0.1142 H       
  40 H40            3.0951    -5.5999     1.2292 H       
  41 H41            3.5166    -9.1463     4.2967 H       
  42 H42            4.6302    -7.7491     6.1198 H       
  43 H43            6.5040     3.0889    -1.6043 H       
  44 H44            7.3004     3.1536    -3.9320 H       
  45 H45            7.5427    -1.1164    -3.9571 H       
  46 H46            6.7513    -1.1693    -1.6274 H       
  47 H47            9.1011     2.7117    -5.9374 H       
  48 H48            7.9196     2.2060    -7.1690 H       
  49 H49            7.3705     3.0577    -5.7056 H       
  50 H50            7.3395    -0.5564    -6.6224 H       
  51 H51            9.0195    -0.0138    -6.8490 H       
  52 H52            8.5714    -0.9392    -5.3961 H       
@<TRIPOS>BOND
   1    1    2 ar
   2    1    6 ar
   3    1   31 1
   4    2    3 ar
   5    2   32 1
   6    3    4 ar
   7    3   33 1
   8    4    5 ar
   9    4    7 1
  10    5    6 ar
  11    5    9 1
  12    6   34 1
  13    7    8 1
  14    7   11 1
  15    7   35 1
  16    8    9 am
  17    8   12 1
  18    9   10 2
  19   11   14 1
  20   12   13 1
  21   12   36 1
  22   12   37 1
  23   13   23 ar
  24   13   27 ar
  25   14   15 1
  26   14   38 1
  27   14   39 1
  28   15   16 am
  29   15   17 2
  30   16   18 1
  31   16   40 1
  32   18   19 2
  33   18   22 1
  34   19   20 1
  35   20   21 2
  36   20   41 1
  37   21   22 1
  38   21   42 1
  39   23   24 ar
  40   23   43 1
  41   24   25 ar
  42   24   44 1
  43   25   26 ar
  44   25   28 1
  45   26   27 ar
  46   26   45 1
  47   27   46 1
  48   28   29 1
  49   28   30 1
  50   29   47 1
  51   29   48 1
  52   29   49 1
  53   30   50 1
  54   30   51 1
  55   30   52 1

#	End of record

