#	Name: ASD03332085
#	Creating user name:	WinNT
#	Creation time:	15. 06. 2019 20:40

#	Modifying user name:	WinNT
#	Modification time:	15. 06. 2019 20:40

#	Program:	/corina/corina34_cracker 3.40 0067  02.08.2006

@<TRIPOS>MOLECULE
ASD03332085
  64   67    0    0    0
SMALL
NO_CHARGES


@<TRIPOS>ATOM
   1 C1            -0.0159     1.3546     0.0393 C.2     
   2 N2             0.0042    -0.0047     0.0504 N.pl3   
   3 C3             1.3084    -0.3957    -0.0353 C.2     
   4 N4             2.0647     0.6761    -0.0777 N.2     
   5 C5             1.2781     1.7735    -0.0303 C.2     
   6 C6             1.7379     3.1734    -0.0511 C.2     
   7 O7             0.9287     4.0801    -0.0035 O.2     
   8 N8             3.0552     3.4490    -0.1228 N.am    
   9 C9             3.5124     4.8407    -0.1434 C.3     
  10 C10            3.4732     5.3691    -1.5787 C.3     
  11 C11            4.3893     4.5182    -2.4606 C.3     
  12 C12            4.9235     4.9137     0.3804 C.2     
  13 C13            2.0405     5.2949    -2.1106 C.3     
  14 C14            3.9506     6.8225    -1.6003 C.3     
  15 N15            5.3933     5.7854     1.2400 N.2     
  16 C16           -1.1728    -0.8716     0.1542 C.3     
  17 C17           -2.2429    -0.3848    -0.8280 C.3     
  18 C18           -3.1087     0.6796    -0.1618 C.3     
  19 N19           -2.3235     1.4884     0.7727 N.3     
  20 C20           -1.2509     2.2169     0.0792 C.3     
  21 C21            1.7896    -1.7937    -0.0736 C.ar    
  22 C22            1.3057    -2.7267     0.8436 C.ar    
  23 C23            1.7585    -4.0294     0.8029 C.ar    
  24 C24            2.6908    -4.4128    -0.1447 C.ar    
  25 C25            3.1764    -3.4944    -1.0576 C.ar    
  26 C26            2.7270    -2.1875    -1.0324 C.ar    
  27 C27            6.6888     5.4659     1.4084 C.2     
  28 N28            6.9363     4.4353     0.6565 N.2     
  29 O29            5.9338     4.0989     0.0621 O.3     
  30 C30            7.6729     6.1734     2.3040 C.3     
  31 C31           -3.1858     2.4106     1.5239 C.3     
  32 C32            3.1799    -5.8378    -0.1819 C.3     
  33 F33            3.2012    -1.2907    -1.9246 F       
  34 H34            3.7007     2.7259    -0.1607 H       
  35 H35            2.8598     5.4468     0.4849 H       
  36 H36            4.0492     3.4828    -2.4453 H       
  37 H37            4.3614     4.8947    -3.4832 H       
  38 H38            5.4099     4.5711    -2.0817 H       
  39 H39            1.3879     5.9011    -1.4823 H       
  40 H40            2.0126     5.6714    -3.1331 H       
  41 H41            1.7004     4.2595    -2.0952 H       
  42 H42            4.9713     6.8754    -1.2214 H       
  43 H43            3.9227     7.1990    -2.6229 H       
  44 H44            3.2980     7.4287    -0.9720 H       
  45 H45           -0.8932    -1.8964    -0.0900 H       
  46 H46           -1.5658    -0.8322     1.1701 H       
  47 H47           -1.7605     0.0393    -1.7086 H       
  48 H48           -2.8686    -1.2254    -1.1281 H       
  49 H49           -3.5311     1.3286    -0.9289 H       
  50 H50           -3.9197     0.1932     0.3802 H       
  51 H51           -1.0329     3.1412     0.6142 H       
  52 H52           -1.5664     2.4489    -0.9380 H       
  53 H53            0.5781    -2.4297     1.5844 H       
  54 H54            1.3842    -4.7519     1.5131 H       
  55 H55            3.9044    -3.8000    -1.7945 H       
  56 H56            7.6552     5.7183     3.2943 H       
  57 H57            8.6745     6.0877     1.8825 H       
  58 H58            7.4007     7.2259     2.3829 H       
  59 H59           -3.9226     1.8400     2.0892 H       
  60 H60           -2.5773     2.9991     2.2105 H       
  61 H61           -3.6972     3.0769     0.8292 H       
  62 H62            2.5386    -6.4249    -0.8393 H       
  63 H63            4.2031    -5.8610    -0.5568 H       
  64 H64            3.1516    -6.2580     0.8234 H       
@<TRIPOS>BOND
   1    1    2 1
   2    1    5 2
   3    1   20 1
   4    2    3 1
   5    2   16 1
   6    3    4 2
   7    3   21 1
   8    4    5 1
   9    5    6 1
  10    6    7 2
  11    6    8 am
  12    8    9 1
  13    8   34 1
  14    9   10 1
  15    9   12 1
  16    9   35 1
  17   10   11 1
  18   10   13 1
  19   10   14 1
  20   11   36 1
  21   11   37 1
  22   11   38 1
  23   12   15 2
  24   12   29 1
  25   13   39 1
  26   13   40 1
  27   13   41 1
  28   14   42 1
  29   14   43 1
  30   14   44 1
  31   15   27 1
  32   16   17 1
  33   16   45 1
  34   16   46 1
  35   17   18 1
  36   17   47 1
  37   17   48 1
  38   18   19 1
  39   18   49 1
  40   18   50 1
  41   19   20 1
  42   19   31 1
  43   20   51 1
  44   20   52 1
  45   21   22 ar
  46   21   26 ar
  47   22   23 ar
  48   22   53 1
  49   23   24 ar
  50   23   54 1
  51   24   25 ar
  52   24   32 1
  53   25   26 ar
  54   25   55 1
  55   26   33 1
  56   27   28 2
  57   27   30 1
  58   28   29 1
  59   30   56 1
  60   30   57 1
  61   30   58 1
  62   31   59 1
  63   31   60 1
  64   31   61 1
  65   32   62 1
  66   32   63 1
  67   32   64 1

#	End of record

