#	Name: ASD04590499
#	Creating user name:	WinNT
#	Creation time:	15. 06. 2019 20:50

#	Modifying user name:	WinNT
#	Modification time:	15. 06. 2019 20:50

#	Program:	/corina/corina34_cracker 3.40 0067  02.08.2006

@<TRIPOS>MOLECULE
ASD04590499
  67   72    0    0    0
SMALL
NO_CHARGES


@<TRIPOS>ATOM
   1 C1            -0.0014     1.3962     0.0570 C.ar    
   2 C2             0.0143     0.0093     0.0231 C.ar    
   3 C3             2.4144     0.0299     0.0335 C.ar    
   4 C4             2.3924     1.4355     0.0674 C.ar    
   5 C5             1.1794     2.1086     0.0791 C.ar    
   6 N6             3.7155    -0.3506     0.0288 N.2     
   7 C7             4.4849     0.7107     0.0571 C.2     
   8 N8             3.7134     1.8415     0.0817 N.pl3   
   9 C9             5.9622     0.6896     0.0621 C.2     
  10 C10            6.7771    -0.4658     0.0370 C.2     
  11 C11            8.0703    -0.0598     0.0517 C.2     
  12 N12            8.0801     1.2987     0.0849 N.pl3   
  13 N13            6.7525     1.7449     0.0850 N.2     
  14 N14            6.3272    -1.7956     0.0033 N.am    
  15 C15            7.2170    -2.8077    -0.0181 C.2     
  16 O16            8.4096    -2.5693    -0.0082 O.2     
  17 C17            1.2076    -0.6763     0.0114 C.ar    
  18 C18            6.7447    -4.2038    -0.0534 C.ar    
  19 C19            5.3819    -4.4879     0.0637 C.ar    
  20 C20           -1.2857    -0.7526    -0.0008 C.3     
  21 N21           -1.7026    -0.9662    -1.3931 N.3     
  22 C22           -2.8327    -1.9037    -1.4667 C.3     
  23 C23           -0.5782    -1.4404    -2.2129 C.3     
  24 C24           -1.0404    -1.5923    -3.6645 C.3     
  25 O25           -2.1588    -2.4824    -3.7127 O.3     
  26 C26           -3.2723    -2.0510    -2.9258 C.3     
  27 C27            4.9469    -5.7949     0.0300 C.ar    
  28 C28            5.8544    -6.8313    -0.1193 C.ar    
  29 C29            7.2039    -6.5671    -0.2362 C.ar    
  30 C30            7.6610    -5.2557    -0.2107 C.ar    
  31 N31            9.0186    -4.9871    -0.3287 N.pl3   
  32 C32            9.9850    -6.0881    -0.3375 C.3     
  33 C33           11.3789    -5.5319    -0.4749 C.ar    
  34 C34           12.1080    -5.2075     0.6538 C.ar    
  35 C35           13.3865    -4.6973     0.5278 C.ar    
  36 C36           13.9361    -4.5119    -0.7270 C.ar    
  37 C37           13.2074    -4.8372    -1.8557 C.ar    
  38 C38           11.9305    -5.3515    -1.7295 C.ar    
  39 H39           -0.9449     1.9218     0.0616 H       
  40 H40            1.1598     3.1881     0.1051 H       
  41 H41            4.0341     2.7567     0.1049 H       
  42 H42            8.9386    -0.7020     0.0399 H       
  43 H43            8.8697     1.8619     0.1016 H       
  44 H44            5.3761    -1.9858    -0.0046 H       
  45 H45            1.2120    -1.7559    -0.0143 H       
  46 H46            4.6702    -3.6841     0.1809 H       
  47 H47           -1.1510    -1.7164     0.4902 H       
  48 H48           -2.0513    -0.1813     0.5242 H       
  49 H49           -2.5256    -2.8751    -1.0792 H       
  50 H50           -3.6628    -1.5203    -0.8733 H       
  51 H51            0.2374    -0.7189    -2.1643 H       
  52 H52           -0.2351    -2.4044    -1.8374 H       
  53 H53           -1.3331    -0.6185    -4.0571 H       
  54 H54           -0.2263    -1.9979    -4.2651 H       
  55 H55           -4.0724    -2.7882    -2.9922 H       
  56 H56           -3.6299    -1.0905    -3.2969 H       
  57 H57            3.8930    -6.0128     0.1206 H       
  58 H58            5.5035    -7.8524    -0.1438 H       
  59 H59            7.9048    -7.3806    -0.3519 H       
  60 H60            9.3269    -4.0706    -0.4053 H       
  61 H61            9.9073    -6.6473     0.5949 H       
  62 H62            9.7737    -6.7504    -1.1770 H       
  63 H63           11.6786    -5.3523     1.6341 H       
  64 H64           13.9559    -4.4431     1.4096 H       
  65 H65           14.9348    -4.1126    -0.8255 H       
  66 H66           13.6366    -4.6920    -2.8361 H       
  67 H67           11.3611    -5.6056    -2.6114 H       
@<TRIPOS>BOND
   1    1    2 ar
   2    1    5 ar
   3    1   39 1
   4    2   17 ar
   5    2   20 1
   6    3    4 ar
   7    3    6 1
   8    3   17 ar
   9    4    5 ar
  10    4    8 1
  11    5   40 1
  12    6    7 2
  13    7    8 1
  14    7    9 1
  15    8   41 1
  16    9   10 1
  17    9   13 2
  18   10   11 2
  19   10   14 1
  20   11   12 1
  21   11   42 1
  22   12   13 1
  23   12   43 1
  24   14   15 am
  25   14   44 1
  26   15   16 2
  27   15   18 1
  28   17   45 1
  29   18   19 ar
  30   18   30 ar
  31   19   27 ar
  32   19   46 1
  33   20   21 1
  34   20   47 1
  35   20   48 1
  36   21   22 1
  37   21   23 1
  38   22   26 1
  39   22   49 1
  40   22   50 1
  41   23   24 1
  42   23   51 1
  43   23   52 1
  44   24   25 1
  45   24   53 1
  46   24   54 1
  47   25   26 1
  48   26   55 1
  49   26   56 1
  50   27   28 ar
  51   27   57 1
  52   28   29 ar
  53   28   58 1
  54   29   30 ar
  55   29   59 1
  56   30   31 1
  57   31   32 1
  58   31   60 1
  59   32   33 1
  60   32   61 1
  61   32   62 1
  62   33   34 ar
  63   33   38 ar
  64   34   35 ar
  65   34   63 1
  66   35   36 ar
  67   35   64 1
  68   36   37 ar
  69   36   65 1
  70   37   38 ar
  71   37   66 1
  72   38   67 1

#	End of record

