#	Name: ASD04840079
#	Creating user name:	WinNT
#	Creation time:	15. 06. 2019 20:52

#	Modifying user name:	WinNT
#	Modification time:	15. 06. 2019 20:52

#	Program:	/corina/corina34_cracker 3.40 0067  02.08.2006

@<TRIPOS>MOLECULE
ASD04840079
  43   47    0    0    0
SMALL
NO_CHARGES


@<TRIPOS>ATOM
   1 C1            -0.0171     1.4121     0.0098 C.ar    
   2 C2            -1.2616     2.0879     0.0193 C.ar    
   3 C3            -2.4538     1.3437     0.0204 C.ar    
   4 C4            -2.4092    -0.0182     0.0124 C.ar    
   5 C5            -1.1973    -0.6979     0.0030 C.ar    
   6 C6             0.0021    -0.0041     0.0020 C.ar    
   7 C7             1.2875    -0.7339    -0.0141 C.ar    
   8 C8             2.2073    -0.6430     1.1209 C.ar    
   9 C9             3.4330    -1.3585     1.0686 C.ar    
  10 C10            3.7392    -2.1328    -0.0572 C.ar    
  11 C11            2.8555    -2.2054    -1.1191 C.ar    
  12 C12            1.6360    -1.5168    -1.0992 C.ar    
  13 N13            1.9097     0.0925     2.1856 N.ar    
  14 C14            2.7353     0.1784     3.2134 C.ar    
  15 C15            3.9622    -0.5029     3.2264 C.ar    
  16 C16            4.3215    -1.2737     2.1593 C.ar    
  17 C17            2.3581     1.0120     4.3769 C.2     
  18 O18            3.1070     1.1003     5.3288 O.2     
  19 O19            1.1843     1.6725     4.3798 O.3     
  20 C20           -1.2811     3.4935     0.0270 C.ar    
  21 C21           -0.1076     4.1835     0.0252 C.ar    
  22 C22            1.1156     3.5168     0.0159 C.ar    
  23 C23            1.1713     2.1556     0.0025 C.ar    
  24 C24            3.2040    -3.0325    -2.2992 C.2     
  25 C25            4.3952    -3.7507    -2.3926 C.2     
  26 C26            4.5473    -4.4400    -3.5201 C.2     
  27 S27            3.1466    -4.2101    -4.5574 S.3     
  28 C28            2.3935    -3.1569    -3.3675 C.2     
  29 H29           -3.4068     1.8519     0.0280 H       
  30 H30           -3.3321    -0.5793     0.0137 H       
  31 H31           -1.1901    -1.7779    -0.0029 H       
  32 H32            4.6715    -2.6766    -0.0969 H       
  33 H33            0.9633    -1.5954    -1.9404 H       
  34 H34            4.6203    -0.4169     4.0784 H       
  35 H35            5.2614    -1.8057     2.1512 H       
  36 H36            0.9817     2.2042     5.1618 H       
  37 H37           -2.2222     4.0233     0.0340 H       
  38 H38           -0.1251     5.2633     0.0308 H       
  39 H39            2.0327     4.0871     0.0146 H       
  40 H40            2.1265     1.6518    -0.0087 H       
  41 H41            5.1385    -3.7474    -1.6090 H       
  42 H42            5.4044    -5.0507    -3.7624 H       
  43 H43            1.4299    -2.6817    -3.4772 H       
@<TRIPOS>BOND
   1    1    6 ar
   2    1   23 ar
   3    1    2 ar
   4    2    3 ar
   5    2   20 ar
   6    3    4 ar
   7    3   29 1
   8    4    5 ar
   9    4   30 1
  10    5    6 ar
  11    5   31 1
  12    6    7 1
  13    7    8 ar
  14    7   12 ar
  15    8   13 ar
  16    8    9 ar
  17    9   10 ar
  18    9   16 ar
  19   10   11 ar
  20   10   32 1
  21   11   12 ar
  22   11   24 1
  23   12   33 1
  24   13   14 ar
  25   14   15 ar
  26   14   17 1
  27   15   16 ar
  28   15   34 1
  29   16   35 1
  30   17   18 2
  31   17   19 1
  32   19   36 1
  33   20   21 ar
  34   20   37 1
  35   21   22 ar
  36   21   38 1
  37   22   23 ar
  38   22   39 1
  39   23   40 1
  40   24   25 1
  41   24   28 2
  42   25   26 2
  43   25   41 1
  44   26   27 1
  45   26   42 1
  46   27   28 1
  47   28   43 1

#	End of record

