#	Name: ASD01140243
#	Creating user name:	WinNT
#	Creation time:	15. 06. 2019 19:00

#	Modifying user name:	WinNT
#	Modification time:	15. 06. 2019 19:00

#	Program:	/corina/corina34_cracker 3.40 0067  02.08.2006

@<TRIPOS>MOLECULE
ASD01140243
  85   90    0    0    0
SMALL
NO_CHARGES


@<TRIPOS>ATOM
   1 C1             0.3012     1.4095     0.0763 C.ar    
   2 C2             0.2935     0.0117     0.0995 C.ar    
   3 C3             1.4937    -0.6847     0.0394 C.ar    
   4 C4             2.7103     0.0045    -0.0437 C.ar    
   5 C5             2.7081     1.3989    -0.0674 C.ar    
   6 C6             3.9434    -0.7973    -0.0993 C.2     
   7 N7             5.0350    -0.5128     0.5184 N.2     
   8 C8             5.1595     0.6793     1.3564 C.3     
   9 C9             5.0002     1.9002     0.4920 C.2     
  10 N10            3.8637     2.1589    -0.1514 N.am    
  11 C11           -0.9467    -0.6991     0.1853 C.1     
  12 C12            3.8326     3.3406    -1.0168 C.3     
  13 O13            5.9313     2.6689     0.3785 O.2     
  14 O14            6.3825    -3.2090     9.8434 O.2     
  15 C15            6.2671    -2.0241    10.0749 C.2     
  16 N16            7.2303    -1.1910     9.6870 N.am    
  17 C17            8.4129    -1.7770     9.0510 C.3     
  18 C18            5.0363    -1.5331    10.7872 C.3     
  19 N19            5.4322    -0.9539    12.0704 N.2     
  20 C20            6.1825     0.0882    12.1423 C.2     
  21 C21            6.7204     0.8205    10.9844 C.ar    
  22 C22            7.2030     0.1862     9.8367 C.ar    
  23 C23            6.7363     2.2195    11.0542 C.ar    
  24 C24            7.2283     2.9710     9.9949 C.ar    
  25 C25            7.7103     2.3258     8.8521 C.ar    
  26 C26            7.2415     4.4008    10.0727 C.1     
  27 C27           -1.9634    -1.2819     0.2557 C.1     
  28 C28            7.2523     5.5730    10.1365 C.1     
  29 C29            6.5308     0.5892    13.4912 C.ar    
  30 C30            7.8573     0.5613    13.9293 C.ar    
  31 C31            8.1745     1.0310    15.1906 C.ar    
  32 C32            7.1822     1.5264    16.0159 C.ar    
  33 C33            5.8668     1.5557    15.5867 C.ar    
  34 C34            5.5371     1.0966    14.3285 C.ar    
  35 C35            3.9256    -2.0238    -0.9283 C.ar    
  36 C36            4.0587    -3.2765    -0.3291 C.ar    
  37 C37            4.0414    -4.4157    -1.1066 C.ar    
  38 C38            3.8925    -4.3195    -2.4792 C.ar    
  39 C39            3.7605    -3.0823    -3.0817 C.ar    
  40 C40            3.7698    -1.9323    -2.3137 C.ar    
  41 C41            3.1553     1.3505     4.4991 C.3     
  42 C42            1.4932     2.0880    -0.0062 C.ar    
  43 C43            7.6941     0.9559     8.7779 C.ar    
  44 O44            3.2275     0.1123     5.2087 O.3     
  45 C45            4.2792     0.0564     6.1745 C.3     
  46 O46            3.9182     0.8344     7.3175 O.3     
  47 C47            2.9434     0.2142     8.1584 C.3     
  48 F48            3.6403    -0.7233    -2.9026 F       
  49 F49            8.8270     0.0764    13.1232 F       
  50 C50            4.3528    -0.4837     9.9491 C.2     
  51 O51            3.5699    -0.8500     8.9222 O.3     
  52 O52            4.5094     0.6875    10.2015 O.2     
  53 C53            4.0868     0.6666     2.4148 C.2     
  54 O54            4.2278     1.4118     3.5223 O.3     
  55 O55            3.0998    -0.0145     2.2666 O.2     
  56 H56           -0.6296     1.9557     0.1186 H       
  57 H57            1.4889    -1.7646     0.0571 H       
  58 H58            6.1415     0.6923     1.8293 H       
  59 H59            4.8017     3.8385    -0.9868 H       
  60 H60            3.6122     3.0359    -2.0399 H       
  61 H61            3.0607     4.0264    -0.6676 H       
  62 H62            8.2987    -2.8597     8.9992 H       
  63 H63            8.5208    -1.3744     8.0438 H       
  64 H64            9.2991    -1.5327     9.6367 H       
  65 H65            4.3558    -2.3673    10.9576 H       
  66 H66            6.3632     2.7170    11.9372 H       
  67 H67            8.0926     2.9056     8.0250 H       
  68 H68           -2.8727    -1.8031     0.3186 H       
  69 H69            7.2620     6.6214    10.1935 H       
  70 H70            9.1991     1.0105    15.5316 H       
  71 H71            7.4347     1.8918    17.0004 H       
  72 H72            5.0968     1.9435    16.2372 H       
  73 H73            4.5099     1.1205    13.9959 H       
  74 H74            4.1754    -3.3542     0.7418 H       
  75 H75            4.1448    -5.3856    -0.6429 H       
  76 H76            3.8798    -5.2152    -3.0825 H       
  77 H77            3.6453    -3.0140    -4.1533 H       
  78 H78            2.1947     1.4214     3.9889 H       
  79 H79            3.2556     2.1781     5.2013 H       
  80 H80            1.4916     3.1679    -0.0239 H       
  81 H81            8.0651     0.4657     7.8899 H       
  82 H82            4.4411    -0.9786     6.4758 H       
  83 H83            5.1949     0.4552     5.7380 H       
  84 H84            2.5282     0.9555     8.8412 H       
  85 H85            2.1449    -0.2012     7.5438 H       
@<TRIPOS>BOND
   1    1    2 ar
   2    1   42 ar
   3    1   56 1
   4    2    3 ar
   5    2   11 1
   6    3    4 ar
   7    3   57 1
   8    4    5 ar
   9    4    6 1
  10    5   10 1
  11    5   42 ar
  12    6    7 2
  13    6   35 1
  14    7    8 1
  15    8    9 1
  16    8   53 1
  17    8   58 1
  18    9   10 am
  19    9   13 2
  20   10   12 1
  21   11   27 3
  22   12   59 1
  23   12   60 1
  24   12   61 1
  25   14   15 2
  26   15   16 am
  27   15   18 1
  28   16   17 1
  29   16   22 1
  30   17   62 1
  31   17   63 1
  32   17   64 1
  33   18   19 1
  34   18   50 1
  35   18   65 1
  36   19   20 2
  37   20   21 1
  38   20   29 1
  39   21   22 ar
  40   21   23 ar
  41   22   43 ar
  42   23   24 ar
  43   23   66 1
  44   24   25 ar
  45   24   26 1
  46   25   43 ar
  47   25   67 1
  48   26   28 3
  49   27   68 1
  50   28   69 1
  51   29   30 ar
  52   29   34 ar
  53   30   31 ar
  54   30   49 1
  55   31   32 ar
  56   31   70 1
  57   32   33 ar
  58   32   71 1
  59   33   34 ar
  60   33   72 1
  61   34   73 1
  62   35   36 ar
  63   35   40 ar
  64   36   37 ar
  65   36   74 1
  66   37   38 ar
  67   37   75 1
  68   38   39 ar
  69   38   76 1
  70   39   40 ar
  71   39   77 1
  72   40   48 1
  73   41   44 1
  74   41   54 1
  75   41   78 1
  76   41   79 1
  77   42   80 1
  78   43   81 1
  79   44   45 1
  80   45   46 1
  81   45   82 1
  82   45   83 1
  83   46   47 1
  84   47   51 1
  85   47   84 1
  86   47   85 1
  87   50   51 1
  88   50   52 2
  89   53   54 1
  90   53   55 2

#	End of record

