#	Name: ASD06140011
#	Creating user name:	WinNT
#	Creation time:	15. 06. 2019 21:05

#	Modifying user name:	WinNT
#	Modification time:	15. 06. 2019 21:05

#	Program:	/corina/corina34_cracker 3.40 0067  02.08.2006

@<TRIPOS>MOLECULE
ASD06140011
  44   47    0    0    0
SMALL
NO_CHARGES


@<TRIPOS>ATOM
   1 C1             0.5496     1.5368    -1.2155 C.ar    
   2 C2             0.5116     0.1527    -1.2820 C.ar    
   3 C3             1.4900    -0.6013    -0.6225 C.ar    
   4 C4             2.4942     0.0483     0.0956 C.ar    
   5 C5             2.5181     1.4261     0.1521 C.ar    
   6 C6             1.5492     2.1684    -0.5011 C.ar    
   7 C7             1.4586    -2.0781    -0.6865 C.2     
   8 N8             2.4242    -2.8173    -0.0355 N.pl3   
   9 N9             0.5184    -2.6816    -1.3582 N.2     
  10 C10            2.3237    -4.2104     0.0125 C.ar    
  11 C11            3.4646    -4.9934    -0.1176 C.ar    
  12 C12            3.3677    -6.3680    -0.0706 C.ar    
  13 C13            2.1243    -6.9722     0.1075 C.ar    
  14 C14            0.9813    -6.1851     0.2377 C.ar    
  15 C15            1.0836    -4.8107     0.1958 C.ar    
  16 C16            2.0174    -8.4513     0.1579 C.2     
  17 N17            3.0368    -9.3175     0.0458 N.2     
  18 C18            2.5682   -10.5533     0.1376 C.2     
  19 N19            1.2099   -10.4866     0.3137 N.pl3   
  20 C20            0.8687    -9.1629     0.3317 C.2     
  21 C21            3.2029   -11.8113     0.0855 C.2     
  22 C22            2.4556   -12.9408     0.2111 C.2     
  23 C23            1.0661   -12.8395     0.3905 C.2     
  24 C24            0.4722   -11.6286     0.4384 C.2     
  25 O25           -0.4702    -0.4691    -1.9832 O.3     
  26 C26           -1.4338     0.3651    -2.6295 C.3     
  27 H27           -0.2005     2.1222    -1.7264 H       
  28 H28            3.2517    -0.5271     0.6069 H       
  29 H29            3.2958     1.9280     0.7086 H       
  30 H30            1.5751     3.2469    -0.4522 H       
  31 H31            3.1731    -2.3702     0.3890 H       
  32 H32            0.5481    -3.6439    -1.4765 H       
  33 H33            4.4278    -4.5248    -0.2560 H       
  34 H34            4.2544    -6.9760    -0.1721 H       
  35 H35            0.0169    -6.6513     0.3755 H       
  36 H36            0.1983    -4.2004     0.2970 H       
  37 H37           -0.1250    -8.7578     0.4534 H       
  38 H38            4.2720   -11.8774    -0.0531 H       
  39 H39            2.9283   -13.9111     0.1728 H       
  40 H40            0.4702   -13.7348     0.4902 H       
  41 H41           -0.5968   -11.5623     0.5770 H       
  42 H42           -1.9464     0.9730    -1.8839 H       
  43 H43           -0.9301     1.0153    -3.3446 H       
  44 H44           -2.1601    -0.2569    -3.1528 H       
@<TRIPOS>BOND
   1    1    2 ar
   2    1    6 ar
   3    1   27 1
   4    2    3 ar
   5    2   25 1
   6    3    4 ar
   7    3    7 1
   8    4    5 ar
   9    4   28 1
  10    5    6 ar
  11    5   29 1
  12    6   30 1
  13    7    8 1
  14    7    9 2
  15    8   10 1
  16    8   31 1
  17    9   32 1
  18   10   11 ar
  19   10   15 ar
  20   11   12 ar
  21   11   33 1
  22   12   13 ar
  23   12   34 1
  24   13   14 ar
  25   13   16 1
  26   14   15 ar
  27   14   35 1
  28   15   36 1
  29   16   17 1
  30   16   20 2
  31   17   18 2
  32   18   19 1
  33   18   21 1
  34   19   20 1
  35   19   24 1
  36   20   37 1
  37   21   22 2
  38   21   38 1
  39   22   23 1
  40   22   39 1
  41   23   24 2
  42   23   40 1
  43   24   41 1
  44   25   26 1
  45   26   42 1
  46   26   43 1
  47   26   44 1

#	End of record

