#	Name: ASD02039183
#	Creating user name:	WinNT
#	Creation time:	15. 06. 2019 20:17

#	Modifying user name:	WinNT
#	Modification time:	15. 06. 2019 20:17

#	Program:	/corina/corina34_cracker 3.40 0067  02.08.2006

@<TRIPOS>MOLECULE
ASD02039183
  42   45    0    0    0
SMALL
NO_CHARGES


@<TRIPOS>ATOM
   1 N1             0.0021     1.2625     0.3695 N.2     
   2 C2             0.0063    -0.0135     0.0890 C.2     
   3 N3             1.2922    -0.3755    -0.1075 N.2     
   4 C4             1.9960     0.7158     0.0679 C.2     
   5 O5             1.1352     1.6953     0.3613 O.3     
   6 C6             3.4938     0.8425    -0.0397 C.3     
   7 C7             3.8682     1.1875    -1.4581 C.ar    
   8 N8            -1.1049    -0.8433     0.0088 N.pl3   
   9 C9            -2.3914    -0.3043     0.1299 C.ar    
  10 C10           -2.6369     1.0036    -0.2675 C.ar    
  11 C11           -3.9060     1.5351    -0.1479 C.ar    
  12 C12           -4.9359     0.7631     0.3685 C.ar    
  13 C13           -4.6921    -0.5441     0.7661 C.ar    
  14 C14           -3.4237    -1.0789     0.6420 C.ar    
  15 C15            3.9588     2.5198    -1.8410 C.ar    
  16 C16            4.2963     2.8587    -3.1208 C.ar    
  17 C17            4.5538     1.8608    -4.0571 C.ar    
  18 C18            4.4625     0.5094    -3.6708 C.ar    
  19 C19            4.1204     0.1880    -2.3528 C.ar    
  20 N20            4.9064     1.8695    -5.3814 N.pl3   
  21 N21            5.0368     0.5506    -5.8285 N.2     
  22 C22            4.7849    -0.2784    -4.8562 C.2     
  23 O23           -6.1854     1.2875     0.4859 O.3     
  24 Cl24          -5.9817    -1.5096     1.4130 Cl      
  25 C25           -6.3646     2.6390     0.0579 C.3     
  26 F26           -5.5326     3.4792     0.8056 F       
  27 F27           -6.0380     2.7460    -1.2982 F       
  28 C28            4.8201    -1.7827    -4.9401 C.3     
  29 F29            3.5565    -2.2591    -5.3055 F       
  30 F30            5.7612    -2.1743    -5.8983 F       
  31 F31            5.1754    -2.3111    -3.6944 F       
  32 H32            3.8409     1.6298     0.6295 H       
  33 H33            3.9594    -0.1028     0.2393 H       
  34 H34           -0.9895    -1.7962    -0.1312 H       
  35 H35           -1.8352     1.6053    -0.6697 H       
  36 H36           -4.0963     2.5525    -0.4564 H       
  37 H37           -3.2337    -2.0962     0.9509 H       
  38 H38            3.7596     3.2972    -1.1183 H       
  39 H39            4.3629     3.8984    -3.4057 H       
  40 H40            4.0483    -0.8454    -2.0472 H       
  41 H41            5.0433     2.6632    -5.9221 H       
  42 H42           -7.4041     2.9321     0.2054 H       
@<TRIPOS>BOND
   1    1    2 2
   2    1    5 1
   3    2    3 1
   4    2    8 1
   5    3    4 2
   6    4    5 1
   7    4    6 1
   8    6    7 1
   9    6   32 1
  10    6   33 1
  11    7   15 ar
  12    7   19 ar
  13    8    9 1
  14    8   34 1
  15    9   10 ar
  16    9   14 ar
  17   10   11 ar
  18   10   35 1
  19   11   12 ar
  20   11   36 1
  21   12   13 ar
  22   12   23 1
  23   13   14 ar
  24   13   24 1
  25   14   37 1
  26   15   16 ar
  27   15   38 1
  28   16   17 ar
  29   16   39 1
  30   17   18 ar
  31   17   20 1
  32   18   19 ar
  33   18   22 1
  34   19   40 1
  35   20   21 1
  36   20   41 1
  37   21   22 2
  38   22   28 1
  39   23   25 1
  40   25   26 1
  41   25   27 1
  42   25   42 1
  43   28   29 1
  44   28   30 1
  45   28   31 1

#	End of record

