#	Name: ASD01916501
#	Creating user name:	WinNT
#	Creation time:	15. 06. 2019 20:07

#	Modifying user name:	WinNT
#	Modification time:	15. 06. 2019 20:07

#	Program:	/corina/corina34_cracker 3.40 0067  02.08.2006

@<TRIPOS>MOLECULE
ASD01916501
  44   47    0    0    0
SMALL
NO_CHARGES


@<TRIPOS>ATOM
   1 C1            -0.0171     1.4094     0.0098 C.ar    
   2 C2             0.0021    -0.0041     0.0020 C.ar    
   3 C3            -1.1913    -0.7261     0.0413 C.ar    
   4 C4            -2.3845    -0.0664     0.0739 C.ar    
   5 C5            -2.4247     1.3363     0.0657 C.ar    
   6 C6            -1.2432     2.0767     0.0357 C.ar    
   7 N7             1.1595     2.0752     0.0021 N.2     
   8 C8             2.3196     1.4682    -0.0397 C.2     
   9 N9             2.4201     0.1196    -0.1572 N.am    
  10 C10            1.3104    -0.6628    -0.0624 C.2     
  11 C11           -3.6872     2.0119     0.0884 C.1     
  12 C12           -4.7221     2.5658     0.1070 C.1     
  13 C13           -5.9845     3.2414     0.1297 C.ar    
  14 N14           -6.0222     4.5704     0.1220 N.ar    
  15 C15           -7.1630     5.2281     0.1422 C.ar    
  16 C16           -8.3711     4.5554     0.1724 C.ar    
  17 C17           -8.3790     3.1670     0.1815 C.ar    
  18 C18           -7.1683     2.4990     0.1541 C.ar    
  19 O19            1.4017    -1.8764    -0.0315 O.2     
  20 C20            3.5353     2.3459     0.1017 C.3     
  21 C21            4.7918     1.6933    -0.4309 C.3     
  22 C22            4.8965     0.2371    -0.0263 C.3     
  23 C23            3.6799    -0.5615    -0.4360 C.3     
  24 C24            4.7900     1.7853    -1.9581 C.3     
  25 C25            6.0094     2.4470     0.1080 C.3     
  26 F26           -1.2846     3.4270     0.0312 F       
  27 H27           -1.1701    -1.8058     0.0455 H       
  28 H28           -3.3063    -0.6283     0.1060 H       
  29 H29           -7.1550     6.3081     0.1354 H       
  30 H30           -9.3004     5.1054     0.1891 H       
  31 H31           -9.3103     2.6206     0.2049 H       
  32 H32           -7.1380     1.4195     0.1599 H       
  33 H33            3.3638     3.2749    -0.4420 H       
  34 H34            3.6800     2.5794     1.1565 H       
  35 H35            5.7789    -0.1975    -0.4960 H       
  36 H36            5.0096     0.1784     1.0562 H       
  37 H37            3.6892    -1.5116     0.0982 H       
  38 H38            3.7385    -0.7642    -1.5053 H       
  39 H39            4.7632     2.8326    -2.2590 H       
  40 H40            5.6924     1.3173    -2.3514 H       
  41 H41            3.9130     1.2716    -2.3520 H       
  42 H42            6.0077     2.4083     1.1973 H       
  43 H43            6.9204     1.9836    -0.2707 H       
  44 H44            5.9673     3.4860    -0.2187 H       
@<TRIPOS>BOND
   1    1    2 ar
   2    1    7 1
   3    1    6 ar
   4    2    3 ar
   5    2   10 1
   6    3    4 ar
   7    3   27 1
   8    4    5 ar
   9    4   28 1
  10    5    6 ar
  11    5   11 1
  12    6   26 1
  13    7    8 2
  14    8    9 1
  15    8   20 1
  16    9   10 am
  17    9   23 1
  18   10   19 2
  19   11   12 3
  20   12   13 1
  21   13   14 ar
  22   13   18 ar
  23   14   15 ar
  24   15   16 ar
  25   15   29 1
  26   16   17 ar
  27   16   30 1
  28   17   18 ar
  29   17   31 1
  30   18   32 1
  31   20   21 1
  32   20   33 1
  33   20   34 1
  34   21   22 1
  35   21   24 1
  36   21   25 1
  37   22   23 1
  38   22   35 1
  39   22   36 1
  40   23   37 1
  41   23   38 1
  42   24   39 1
  43   24   40 1
  44   24   41 1
  45   25   42 1
  46   25   43 1
  47   25   44 1

#	End of record

