#	Name: ASD01913728
#	Creating user name:	WinNT
#	Creation time:	15. 06. 2019 20:02

#	Modifying user name:	WinNT
#	Modification time:	15. 06. 2019 20:02

#	Program:	/corina/corina34_cracker 3.40 0067  02.08.2006

@<TRIPOS>MOLECULE
ASD01913728
  50   51    0    0    0
SMALL
NO_CHARGES


@<TRIPOS>ATOM
   1 O1             0.2285     1.3399    -0.0741 O.3     
   2 C2             0.1244    -0.0106    -0.0394 C.ar    
   3 N3             1.2228    -0.7490    -0.0024 N.ar    
   4 C4             1.1739    -2.0642     0.0322 C.ar    
   5 C5            -0.0522    -2.7302     0.0305 C.ar    
   6 C6            -1.2352    -1.9772    -0.0083 C.ar    
   7 C7            -1.1356    -0.6015    -0.0375 C.ar    
   8 C8            -0.1038    -4.2049     0.0683 C.2     
   9 N9             1.0347    -4.9214    -0.0159 N.am    
  10 O10           -1.1732    -4.7733     0.1755 O.2     
  11 C11            0.9835    -6.3850     0.0216 C.3     
  12 C12            1.5476     1.8893    -0.0683 C.3     
  13 C13            1.4655     3.3935    -0.1100 C.ar    
  14 C14            1.4092     4.1152     1.0675 C.ar    
  15 C15            1.3334     5.4953     1.0307 C.ar    
  16 C16            1.3139     6.1546    -0.1834 C.ar    
  17 C17            1.3707     5.4327    -1.3637 C.ar    
  18 C18            1.4523     4.0512    -1.3256 C.ar    
  19 F19            1.3517     6.0762    -2.5515 F       
  20 C20           -2.5816    -2.6541    -0.0116 C.3     
  21 C21            2.4017    -6.9480    -0.0908 C.3     
  22 C22            2.3482    -8.4766    -0.0515 C.3     
  23 C23            1.5026    -8.9875    -1.2198 C.3     
  24 C24            3.7665    -9.0395    -0.1640 C.3     
  25 C25            1.7222    -8.9313     1.2684 C.3     
  26 H26            2.0914    -2.6331     0.0618 H       
  27 H27           -2.0254     0.0098    -0.0673 H       
  28 H28            1.8879    -4.4680    -0.1015 H       
  29 H29            0.5375    -6.7090     0.9620 H       
  30 H30            0.3810    -6.7490    -0.8106 H       
  31 H31            2.0665     1.5788     0.8386 H       
  32 H32            2.0943     1.5310    -0.9405 H       
  33 H33            1.4240     3.6007     2.0169 H       
  34 H34            1.2891     6.0582     1.9514 H       
  35 H35            1.2540     7.2326    -0.2119 H       
  36 H36            1.4967     3.4871    -2.2455 H       
  37 H37           -2.8701    -2.8943     1.0117 H       
  38 H38           -3.3228    -1.9865    -0.4509 H       
  39 H39           -2.5257    -3.5712    -0.5981 H       
  40 H40            2.8477    -6.6241    -1.0311 H       
  41 H41            3.0041    -6.5840     0.7415 H       
  42 H42            1.9486    -8.6635    -2.1601 H       
  43 H43            1.4646   -10.0765    -1.1918 H       
  44 H44            0.4923    -8.5864    -1.1397 H       
  45 H45            4.3689    -8.6755     0.6683 H       
  46 H46            3.7284   -10.1285    -0.1360 H       
  47 H47            4.2125    -8.7156    -1.1043 H       
  48 H48            0.7118    -8.5302     1.3485 H       
  49 H49            1.6841   -10.0202     1.2964 H       
  50 H50            2.3246    -8.5673     2.1007 H       
@<TRIPOS>BOND
   1    1    2 1
   2    1   12 1
   3    2    3 ar
   4    2    7 ar
   5    3    4 ar
   6    4    5 ar
   7    4   26 1
   8    5    6 ar
   9    5    8 1
  10    6    7 ar
  11    6   20 1
  12    7   27 1
  13    8    9 am
  14    8   10 2
  15    9   11 1
  16    9   28 1
  17   11   21 1
  18   11   29 1
  19   11   30 1
  20   12   13 1
  21   12   31 1
  22   12   32 1
  23   13   14 ar
  24   13   18 ar
  25   14   15 ar
  26   14   33 1
  27   15   16 ar
  28   15   34 1
  29   16   17 ar
  30   16   35 1
  31   17   18 ar
  32   17   19 1
  33   18   36 1
  34   20   37 1
  35   20   38 1
  36   20   39 1
  37   21   22 1
  38   21   40 1
  39   21   41 1
  40   22   23 1
  41   22   24 1
  42   22   25 1
  43   23   42 1
  44   23   43 1
  45   23   44 1
  46   24   45 1
  47   24   46 1
  48   24   47 1
  49   25   48 1
  50   25   49 1
  51   25   50 1

#	End of record

