#	Name: ASD04590858
#	Creating user name:	WinNT
#	Creation time:	15. 06. 2019 20:51

#	Modifying user name:	WinNT
#	Modification time:	15. 06. 2019 20:51

#	Program:	/corina/corina34_cracker 3.40 0067  02.08.2006

@<TRIPOS>MOLECULE
ASD04590858
  63   68    0    0    0
SMALL
NO_CHARGES


@<TRIPOS>ATOM
   1 N1            -0.0171     1.3232    -0.0119 N.ar    
   2 C2             0.0017    -0.0035    -0.0051 C.ar    
   3 N3             1.1298    -0.6949    -0.0118 N.ar    
   4 C4             2.3050    -0.0728    -0.0262 C.ar    
   5 C5             2.3189     1.3366    -0.0341 C.ar    
   6 C6             1.1072     2.0202    -0.0261 C.ar    
   7 N7             3.6031    -0.5195    -0.0358 N.pl3   
   8 C8             4.4823     0.5495    -0.0498 C.ar    
   9 C9             3.7312     1.7385    -0.0494 C.ar    
  10 C10            5.8680     0.6418    -0.0632 C.ar    
  11 N11            6.4613     1.8181    -0.0753 N.ar    
  12 C12            5.7850     2.9533    -0.0753 C.ar    
  13 C13            4.4064     2.9585    -0.0629 C.ar    
  14 N14           -1.2019    -0.6887     0.0098 N.pl3   
  15 C15           -2.4019     0.0120     0.1303 C.ar    
  16 N16           -2.3783     1.3196     0.3309 N.ar    
  17 C17           -3.4885     2.0229     0.4509 C.ar    
  18 C18           -4.7291     1.4087     0.3703 C.ar    
  19 C19           -4.7935     0.0321     0.1596 C.ar    
  20 C20           -3.6094    -0.6709     0.0326 C.ar    
  21 N21           -5.9023     2.1615     0.4995 N.3     
  22 C22            4.0018    -1.9292    -0.0312 C.3     
  23 C23            3.4004    -2.6445     1.1962 C.3     
  24 C24            3.4384    -2.6403    -1.2741 C.3     
  25 C25            2.5144    -3.7629    -0.7586 C.3     
  26 C26            2.1010    -3.2939     0.6586 C.3     
  27 C27           -6.7112     1.6901     1.6444 C.3     
  28 C28           -8.1907     1.8671     1.2556 C.3     
  29 C29           -8.1652     2.4342    -0.1824 C.3     
  30 C30           -6.7676     2.0082    -0.6980 C.3     
  31 N31           -9.2268     1.8298    -0.9984 N.3     
  32 C32          -10.5532     2.1318    -0.4441 C.3     
  33 C33           -9.1288     2.2670    -2.3974 C.3     
  34 H34            1.0849     3.1000    -0.0315 H       
  35 H35            6.4645    -0.2585    -0.0634 H       
  36 H36            6.3203     3.8912    -0.0851 H       
  37 H37            3.8596     3.8899    -0.0633 H       
  38 H38           -1.2103    -1.6559    -0.0635 H       
  39 H39           -3.4301     3.0889     0.6140 H       
  40 H40           -5.7459    -0.4729     0.0926 H       
  41 H41           -3.6221    -1.7382    -0.1317 H       
  42 H42            5.0887    -2.0095    -0.0157 H       
  43 H43            4.0843    -3.4087     1.5654 H       
  44 H44            3.1704    -1.9252     1.9822 H       
  45 H45            2.8684    -1.9365    -1.8806 H       
  46 H46            4.2519    -3.0664    -1.8613 H       
  47 H47            1.6378    -3.8597    -1.3991 H       
  48 H48            3.0552    -4.7077    -0.7051 H       
  49 H49            1.8092    -4.1429     1.2766 H       
  50 H50            1.2968    -2.5602     0.6034 H       
  51 H51           -6.5017     0.6382     1.8390 H       
  52 H52           -6.4858     2.2861     2.5287 H       
  53 H53           -8.7044     0.9059     1.2742 H       
  54 H54           -8.6778     2.5704     1.9310 H       
  55 H55           -8.2574     3.5202    -0.1704 H       
  56 H56           -6.4357     2.6682    -1.4995 H       
  57 H57           -6.7808     0.9710    -1.0329 H       
  58 H58          -10.7008     3.2116    -0.4226 H       
  59 H59          -11.3206     1.6726    -1.0673 H       
  60 H60          -10.6226     1.7354     0.5689 H       
  61 H61           -8.1626     1.9689    -2.8044 H       
  62 H62           -9.9263     1.8049    -2.9791 H       
  63 H63           -9.2248     3.3517    -2.4466 H       
@<TRIPOS>BOND
   1    1    2 ar
   2    1    6 ar
   3    2    3 ar
   4    2   14 1
   5    3    4 ar
   6    4    5 ar
   7    4    7 1
   8    5    6 ar
   9    5    9 1
  10    6   34 1
  11    7    8 1
  12    7   22 1
  13    8    9 ar
  14    8   10 ar
  15    9   13 ar
  16   10   11 ar
  17   10   35 1
  18   11   12 ar
  19   12   13 ar
  20   12   36 1
  21   13   37 1
  22   14   15 1
  23   14   38 1
  24   15   16 ar
  25   15   20 ar
  26   16   17 ar
  27   17   18 ar
  28   17   39 1
  29   18   19 ar
  30   18   21 1
  31   19   20 ar
  32   19   40 1
  33   20   41 1
  34   21   27 1
  35   21   30 1
  36   22   24 1
  37   22   23 1
  38   22   42 1
  39   23   26 1
  40   23   43 1
  41   23   44 1
  42   24   25 1
  43   24   45 1
  44   24   46 1
  45   25   26 1
  46   25   47 1
  47   25   48 1
  48   26   49 1
  49   26   50 1
  50   27   28 1
  51   27   51 1
  52   27   52 1
  53   28   29 1
  54   28   53 1
  55   28   54 1
  56   29   30 1
  57   29   31 1
  58   29   55 1
  59   30   56 1
  60   30   57 1
  61   31   32 1
  62   31   33 1
  63   32   58 1
  64   32   59 1
  65   32   60 1
  66   33   61 1
  67   33   62 1
  68   33   63 1

#	End of record

