#	Name: ASD02560250
#	Creating user name:	WinNT
#	Creation time:	15. 06. 2019 20:24

#	Modifying user name:	WinNT
#	Modification time:	15. 06. 2019 20:24

#	Program:	/corina/corina34_cracker 3.40 0067  02.08.2006

@<TRIPOS>MOLECULE
ASD02560250
  38   40    0    0    0
SMALL
NO_CHARGES


@<TRIPOS>ATOM
   1 N1             0.0291     1.2813     0.3711 N.2     
   2 N2             0.0478    -0.0051     0.3702 N.2     
   3 C3             1.2551    -0.4210     0.0746 C.2     
   4 O4             2.0182     0.6713    -0.1161 O.3     
   5 C5             1.2132     1.7339     0.0788 C.2     
   6 C6             1.6120     3.1836    -0.0234 C.3     
   7 N7             1.6684    -1.7377    -0.0228 N.pl3   
   8 C8             0.7352    -2.7733     0.0861 C.ar    
   9 C9            -0.5812    -2.5678    -0.3069 C.ar    
  10 C10           -1.5008    -3.5924    -0.1982 C.ar    
  11 C11           -1.1119    -4.8229     0.3016 C.ar    
  12 C12            0.1988    -5.0302     0.6942 C.ar    
  13 C13            1.1240    -4.0111     0.5820 C.ar    
  14 C14            2.0840     3.6708     1.3223 C.ar    
  15 C15            3.4191     3.5672     1.6655 C.ar    
  16 C16            3.8520     4.0141     2.8999 C.ar    
  17 C17            2.9501     4.5649     3.7909 C.ar    
  18 C18            1.6152     4.6693     3.4474 C.ar    
  19 C19            1.1829     4.2264     2.2113 C.ar    
  20 Cl20          -2.2706    -6.1085     0.4367 Cl      
  21 C21            5.3073     3.9003     3.2744 C.3     
  22 C22            0.6317     5.2693     4.4189 C.3     
  23 H23            2.4170     3.2886    -0.7507 H       
  24 H24            0.7539     3.7748    -0.3433 H       
  25 H25            2.6056    -1.9425    -0.1666 H       
  26 H26           -0.8853    -1.6076    -0.6966 H       
  27 H27           -2.5245    -3.4331    -0.5032 H       
  28 H28            0.4994    -5.9913     1.0845 H       
  29 H29            2.1469    -4.1736     0.8882 H       
  30 H30            4.1238     3.1369     0.9694 H       
  31 H31            3.2882     4.9133     4.7556 H       
  32 H32            0.1400     4.3080     1.9428 H       
  33 H33            5.8335     4.8037     2.9663 H       
  34 H34            5.3962     3.7784     4.3539 H       
  35 H35            5.7448     3.0364     2.7740 H       
  36 H36            0.5698     6.3452     4.2554 H       
  37 H37           -0.3500     4.8214     4.2654 H       
  38 H38            0.9641     5.0754     5.4387 H       
@<TRIPOS>BOND
   1    1    2 1
   2    1    5 2
   3    2    3 2
   4    3    4 1
   5    3    7 1
   6    4    5 1
   7    5    6 1
   8    6   14 1
   9    6   23 1
  10    6   24 1
  11    7    8 1
  12    7   25 1
  13    8    9 ar
  14    8   13 ar
  15    9   10 ar
  16    9   26 1
  17   10   11 ar
  18   10   27 1
  19   11   12 ar
  20   11   20 1
  21   12   13 ar
  22   12   28 1
  23   13   29 1
  24   14   15 ar
  25   14   19 ar
  26   15   16 ar
  27   15   30 1
  28   16   17 ar
  29   16   21 1
  30   17   18 ar
  31   17   31 1
  32   18   19 ar
  33   18   22 1
  34   19   32 1
  35   21   33 1
  36   21   34 1
  37   21   35 1
  38   22   36 1
  39   22   37 1
  40   22   38 1

#	End of record

