#	Name: ASD01816477
#	Creating user name:	WinNT
#	Creation time:	15. 06. 2019 19:35

#	Modifying user name:	WinNT
#	Modification time:	15. 06. 2019 19:35

#	Program:	/corina/corina34_cracker 3.40 0067  02.08.2006

@<TRIPOS>MOLECULE
ASD01816477
  61   66    0    0    0
SMALL
NO_CHARGES


@<TRIPOS>ATOM
   1 C1             0.0152     1.6174    -0.3278 C.ar    
   2 C2             0.0079     0.2342    -0.4060 C.ar    
   3 C3             1.1906    -0.4759    -0.4134 C.ar    
   4 C4             2.4062     0.1951    -0.3418 C.ar    
   5 C5             2.4103     1.5977    -0.2626 C.ar    
   6 C6             1.2110     2.3024    -0.2561 C.ar    
   7 N7             3.5965    -0.5114    -0.3483 N.pl3   
   8 C8             4.7993     0.0818    -0.2815 C.2     
   9 C9             4.9279     1.4461    -0.2010 C.2     
  10 C10            3.7111     2.2897    -0.1876 C.2     
  11 C11            6.0427     2.3847    -0.1172 C.2     
  12 N12            5.4935     3.6173    -0.0634 N.am    
  13 N13            4.0998     3.5298    -0.1072 N.2     
  14 C14            6.2142     4.8070     0.0235 C.ar    
  15 O15            7.2314     2.1107    -0.0990 O.2     
  16 C16            3.5414    -1.9730    -0.4312 C.3     
  17 C17            3.5618    -2.3952    -1.8777 C.ar    
  18 C18            4.7682    -2.6353    -2.5095 C.ar    
  19 C19            4.7901    -3.0218    -3.8353 C.ar    
  20 C20            3.5992    -3.1698    -4.5336 C.ar    
  21 C21            2.3896    -2.9284    -3.8964 C.ar    
  22 C22            2.3738    -2.5471    -2.5690 C.ar    
  23 N23            3.6182    -3.5616    -5.8794 N.pl3   
  24 C24            2.5369    -3.7417    -6.6712 C.2     
  25 C25            2.9797    -4.1172    -7.8936 C.2     
  26 C26            4.3772    -4.1685    -7.8485 C.2     
  27 N27            4.7610    -3.8300    -6.6439 N.2     
  28 C28            7.1913     5.1010    -0.9179 C.ar    
  29 C29            7.9037     6.2803    -0.8302 C.ar    
  30 C30            7.6508     7.1777     0.1944 C.ar    
  31 C31            6.6847     6.9024     1.1384 C.ar    
  32 C32            5.9519     5.7163     1.0596 C.ar    
  33 C33            4.9162     5.4157     2.0662 C.2     
  34 O34            4.9943     4.4034     2.7353 O.2     
  35 N35            3.8834     6.2632     2.2443 N.am    
  36 C36            2.8046     5.9182     3.1735 C.3     
  37 C37            3.8396     7.5293     1.5086 C.3     
  38 H38           -0.9177     2.1616    -0.3274 H       
  39 H39           -0.9329    -0.2933    -0.4615 H       
  40 H40            1.1722    -1.5540    -0.4743 H       
  41 H41            1.2157     3.3806    -0.1955 H       
  42 H42            5.6888    -0.5306    -0.2910 H       
  43 H43            4.4026    -2.3989     0.0837 H       
  44 H44            2.6246    -2.3293     0.0384 H       
  45 H45            5.6942    -2.5200    -1.9658 H       
  46 H46            5.7326    -3.2085    -4.3284 H       
  47 H47            1.4616    -3.0423    -4.4371 H       
  48 H48            1.4332    -2.3593    -2.0728 H       
  49 H49            1.5052    -3.6102    -6.3802 H       
  50 H50            2.3632    -4.3382    -8.7523 H       
  51 H51            5.0275    -4.4369    -8.6680 H       
  52 H52            7.3945     4.4063    -1.7194 H       
  53 H53            8.6631     6.5044    -1.5647 H       
  54 H54            8.2137     8.0975     0.2541 H       
  55 H55            6.4920     7.6050     1.9356 H       
  56 H56            3.0473     6.2940     4.1675 H       
  57 H57            1.8729     6.3691     2.8320 H       
  58 H58            2.6911     4.8348     3.2124 H       
  59 H59            4.7392     7.6279     0.9011 H       
  60 H60            2.9617     7.5440     0.8627 H       
  61 H61            3.7852     8.3580     2.2145 H       
@<TRIPOS>BOND
   1    1    2 ar
   2    1    6 ar
   3    1   38 1
   4    2    3 ar
   5    2   39 1
   6    3    4 ar
   7    3   40 1
   8    4    5 ar
   9    4    7 1
  10    5    6 ar
  11    5   10 1
  12    6   41 1
  13    7    8 1
  14    7   16 1
  15    8    9 2
  16    8   42 1
  17    9   10 1
  18    9   11 1
  19   10   13 2
  20   11   12 am
  21   11   15 2
  22   12   13 1
  23   12   14 1
  24   14   28 ar
  25   14   32 ar
  26   16   17 1
  27   16   43 1
  28   16   44 1
  29   17   18 ar
  30   17   22 ar
  31   18   19 ar
  32   18   45 1
  33   19   20 ar
  34   19   46 1
  35   20   21 ar
  36   20   23 1
  37   21   22 ar
  38   21   47 1
  39   22   48 1
  40   23   24 1
  41   23   27 1
  42   24   25 2
  43   24   49 1
  44   25   26 1
  45   25   50 1
  46   26   27 2
  47   26   51 1
  48   28   29 ar
  49   28   52 1
  50   29   30 ar
  51   29   53 1
  52   30   31 ar
  53   30   54 1
  54   31   32 ar
  55   31   55 1
  56   32   33 1
  57   33   34 2
  58   33   35 am
  59   35   36 1
  60   35   37 1
  61   36   56 1
  62   36   57 1
  63   36   58 1
  64   37   59 1
  65   37   60 1
  66   37   61 1

#	End of record

