#	Name: ASD01320058
#	Creating user name:	WinNT
#	Creation time:	15. 06. 2019 19:15

#	Modifying user name:	WinNT
#	Modification time:	15. 06. 2019 19:15

#	Program:	/corina/corina34_cracker 3.40 0067  02.08.2006

@<TRIPOS>MOLECULE
ASD01320058
 162  168    0    0    0
SMALL
NO_CHARGES


@<TRIPOS>ATOM
   1 C1            -5.6086    -3.2164    -0.8583 C.3     
   2 C2            -5.2419    -4.7011    -0.9042 C.3     
   3 C3            -4.3334    -4.9650    -2.1066 C.3     
   4 C4            -3.9666    -6.4497    -2.1525 C.3     
   5 C5            -3.0581    -6.7137    -3.3549 C.3     
   6 C6            -2.6913    -8.1983    -3.4008 C.3     
   7 C7            -1.7828    -8.4623    -4.6032 C.3     
   8 C8            -1.4160    -9.9470    -4.6492 C.3     
   9 C9            -0.5075   -10.2109    -5.8516 C.3     
  10 C10           -0.1407   -11.6956    -5.8975 C.3     
  11 C11            0.7678   -11.9596    -7.0999 C.3     
  12 C12            1.1346   -13.4443    -7.1458 C.3     
  13 C13            2.0431   -13.7082    -8.3482 C.3     
  14 C14            2.4098   -15.1929    -8.3941 C.3     
  15 C15            3.3184   -15.4569    -9.5965 C.3     
  16 C16            3.6851   -16.9415    -9.6424 C.3     
  17 C17            4.5937   -17.2055   -10.8448 C.3     
  18 C18            4.9549   -18.6679   -10.8901 C.2     
  19 O19            4.5294   -19.4216   -10.0471 O.2     
  20 O20            5.7494   -19.1330   -11.8668 O.3     
  21 C21            6.0556   -20.5523   -11.8478 C.3     
  22 C22            6.9527   -20.8883   -13.0111 C.2     
  23 N23            7.4430   -22.0935   -13.3218 N.2     
  24 N24            8.1668   -21.9884   -14.3800 N.2     
  25 N25            8.1812   -20.7680   -14.7887 N.pl3   
  26 C26            7.4162   -20.0310   -13.9504 C.2     
  27 C27            8.8982   -20.2643   -15.9628 C.3     
  28 C28           10.3556   -20.6328   -15.8577 C.2     
  29 O29           10.7545   -21.2526   -14.9002 O.2     
  30 O30           11.2106   -20.2726   -16.8276 O.3     
  31 C31           12.6031   -20.6624   -16.6596 C.3     
  32 C32           12.8239   -22.0309   -17.2904 C.3     
  33 C33           14.2915   -22.4341   -17.1850 C.3     
  34 C34           15.1604   -21.4333   -17.9693 C.3     
  35 C35           14.9363   -20.0441   -17.3881 C.3     
  36 C36           13.4999   -19.5906   -17.2802 C.3     
  37 C37           12.9164   -19.1307   -18.6153 C.3     
  38 C38           13.4481   -18.3745   -16.3216 C.3     
  39 C39           15.8338   -19.0386   -18.1092 C.3     
  40 C40           17.2836   -19.3828   -17.7217 C.3     
  41 C41           17.6441   -20.7847   -18.2043 C.3     
  42 C42           16.6241   -21.8237   -17.7607 C.3     
  43 C43           16.9362   -23.1621   -18.4299 C.3     
  44 C44           18.3784   -23.5175   -18.1897 C.2     
  45 C45           19.2924   -22.6539   -17.8594 C.2     
  46 C46           19.0273   -21.1835   -17.6779 C.3     
  47 C47           19.0589   -20.9340   -16.1620 C.3     
  48 C48           20.1259   -20.3310   -18.2957 C.3     
  49 C49           21.5220   -20.8468   -17.9449 C.3     
  50 C50           21.6830   -22.3040   -18.3847 C.3     
  51 C51           20.6983   -23.1563   -17.5865 C.3     
  52 C52           20.8351   -24.6269   -17.9460 C.3     
  53 C53           22.2620   -25.1198   -17.7102 C.3     
  54 C54           22.5708   -25.1342   -16.2114 C.3     
  55 C55           22.3771   -26.5577   -18.2419 C.3     
  56 C56           23.2757   -24.2473   -18.4422 C.3     
  57 C57           23.1094   -22.7719   -18.0990 C.3     
  58 C58           21.4056   -22.4145   -19.8597 C.2     
  59 O59           20.5103   -23.1232   -20.2547 O.2     
  60 O60           22.1529   -21.7256   -20.7365 O.3     
  61 C61           21.8287   -21.8802   -22.1434 C.3     
  62 C62           22.7659   -21.0382   -22.9703 C.ar    
  63 C63           23.9573   -21.5727   -23.4239 C.ar    
  64 C64           24.8170   -20.8003   -24.1823 C.ar    
  65 C65           24.4851   -19.4936   -24.4877 C.ar    
  66 C66           23.2932   -18.9594   -24.0349 C.ar    
  67 C67           22.4315   -19.7332   -23.2801 C.ar    
  68 C68           17.7324   -20.7568   -19.7394 C.3     
  69 C69           14.7649   -21.5249   -19.4390 C.3     
  70 H70           -4.7007    -2.6205    -0.7654 H       
  71 H71           -6.1307    -2.9426    -1.7751 H       
  72 H72           -6.2559    -3.0283    -0.0017 H       
  73 H73           -4.7199    -4.9749     0.0127 H       
  74 H74           -6.1499    -5.2969    -0.9971 H       
  75 H75           -4.8554    -4.6912    -3.0235 H       
  76 H76           -3.4254    -4.3692    -2.0137 H       
  77 H77           -3.4446    -6.7235    -1.2357 H       
  78 H78           -4.8746    -7.0456    -2.2454 H       
  79 H79           -3.5801    -6.4398    -4.2718 H       
  80 H80           -2.1501    -6.1178    -3.2620 H       
  81 H81           -2.1693    -8.4722    -2.4840 H       
  82 H82           -3.5993    -8.7942    -3.4938 H       
  83 H83           -2.3048    -8.1885    -5.5201 H       
  84 H84           -0.8748    -7.8665    -4.5103 H       
  85 H85           -0.8940   -10.2208    -3.7323 H       
  86 H86           -2.3240   -10.5428    -4.7421 H       
  87 H87           -1.0295    -9.9371    -6.7684 H       
  88 H88            0.4005    -9.6151    -5.7586 H       
  89 H89            0.3813   -11.9694    -4.9806 H       
  90 H90           -1.0487   -12.2915    -5.9904 H       
  91 H91            0.2458   -11.6858    -8.0167 H       
  92 H92            1.6758   -11.3637    -7.0070 H       
  93 H93            1.6566   -13.7181    -6.2289 H       
  94 H94            0.2266   -14.0401    -7.2387 H       
  95 H95            1.5211   -13.4344    -9.2651 H       
  96 H96            2.9511   -13.1124    -8.2553 H       
  97 H97            2.9319   -15.4667    -7.4773 H       
  98 H98            1.5019   -15.7888    -8.4870 H       
  99 H99            2.7963   -15.1831   -10.5134 H       
 100 H100           4.2263   -14.8610    -9.5036 H       
 101 H101           4.2071   -17.2154    -8.7256 H       
 102 H102           2.7771   -17.5374    -9.7354 H       
 103 H103           4.0716   -16.9317   -11.7617 H       
 104 H104           5.5016   -16.6097   -10.7519 H       
 105 H105           6.5610   -20.8024   -10.9151 H       
 106 H106           5.1310   -21.1245   -11.9249 H       
 107 H107           7.2207   -18.9707   -14.0139 H       
 108 H108           8.4754   -20.7075   -16.8644 H       
 109 H109           8.8002   -19.1798   -16.0107 H       
 110 H110          12.8174   -20.7226   -15.5865 H       
 111 H111          12.2209   -22.7707   -16.7426 H       
 112 H112          12.4852   -22.0358   -18.3220 H       
 113 H113          14.6028   -22.4291   -16.1411 H       
 114 H114          14.4304   -23.4294   -17.6053 H       
 115 H115          15.3278   -20.0921   -16.3385 H       
 116 H116          12.8376   -19.9829   -19.2903 H       
 117 H117          11.9268   -18.7041   -18.4517 H       
 118 H118          13.5686   -18.3769   -19.0565 H       
 119 H119          14.0662   -17.5704   -16.7210 H       
 120 H120          12.4185   -18.0291   -16.2281 H       
 121 H121          13.8232   -18.6684   -15.3413 H       
 122 H122          15.7104   -19.0759   -19.1800 H       
 123 H123          15.6269   -18.0257   -17.7574 H       
 124 H124          17.9476   -18.6520   -18.1856 H       
 125 H125          17.3451   -19.2905   -16.6405 H       
 126 H126          16.7450   -21.9770   -16.6669 H       
 127 H127          16.3136   -23.9427   -17.9746 H       
 128 H128          16.7467   -23.1512   -19.4965 H       
 129 H129          18.6572   -24.5560   -18.3015 H       
 130 H130          18.2884   -21.5347   -15.6788 H       
 131 H131          20.0366   -21.2122   -15.7684 H       
 132 H132          18.8744   -19.8782   -15.9636 H       
 133 H133          20.0509   -20.2441   -19.3735 H       
 134 H134          20.0365   -19.3081   -17.8886 H       
 135 H135          22.2679   -20.2402   -18.4685 H       
 136 H136          21.6994   -20.7686   -16.8747 H       
 137 H137          20.9069   -23.0258   -16.5157 H       
 138 H138          20.1575   -25.2133   -17.3088 H       
 139 H139          20.5515   -24.8007   -18.9836 H       
 140 H140          21.8733   -25.7999   -15.7031 H       
 141 H141          23.5901   -25.4870   -16.0538 H       
 142 H142          22.4691   -24.1260   -15.8098 H       
 143 H143          22.1513   -26.5699   -19.3082 H       
 144 H144          23.3908   -26.9245   -18.0810 H       
 145 H145          21.6708   -27.1980   -17.7136 H       
 146 H146          24.2859   -24.5658   -18.1483 H       
 147 H147          23.1851   -24.4022   -19.5180 H       
 148 H148          23.8026   -22.1793   -18.7071 H       
 149 H149          23.3447   -22.5980   -17.0480 H       
 150 H150          21.9343   -22.9272   -22.4276 H       
 151 H151          20.8019   -21.5583   -22.3172 H       
 152 H152          24.2167   -22.5936   -23.1853 H       
 153 H153          25.7482   -21.2177   -24.5361 H       
 154 H154          25.1570   -18.8900   -25.0797 H       
 155 H155          23.0340   -17.9384   -24.2732 H       
 156 H156          21.5003   -19.3158   -22.9263 H       
 157 H157          18.5376   -20.0887   -20.0450 H       
 158 H158          17.9339   -21.7619   -20.1101 H       
 159 H159          16.7883   -20.4002   -20.1512 H       
 160 H160          13.6804   -21.4613   -19.5280 H       
 161 H161          15.2235   -20.7042   -19.9905 H       
 162 H162          15.1080   -22.4748   -19.8491 H       
@<TRIPOS>BOND
   1    1    2 1
   2    1   70 1
   3    1   71 1
   4    1   72 1
   5    2    3 1
   6    2   73 1
   7    2   74 1
   8    3    4 1
   9    3   75 1
  10    3   76 1
  11    4    5 1
  12    4   77 1
  13    4   78 1
  14    5    6 1
  15    5   79 1
  16    5   80 1
  17    6    7 1
  18    6   81 1
  19    6   82 1
  20    7    8 1
  21    7   83 1
  22    7   84 1
  23    8    9 1
  24    8   85 1
  25    8   86 1
  26    9   10 1
  27    9   87 1
  28    9   88 1
  29   10   11 1
  30   10   89 1
  31   10   90 1
  32   11   12 1
  33   11   91 1
  34   11   92 1
  35   12   13 1
  36   12   93 1
  37   12   94 1
  38   13   14 1
  39   13   95 1
  40   13   96 1
  41   14   15 1
  42   14   97 1
  43   14   98 1
  44   15   16 1
  45   15   99 1
  46   15  100 1
  47   16   17 1
  48   16  101 1
  49   16  102 1
  50   17   18 1
  51   17  103 1
  52   17  104 1
  53   18   19 2
  54   18   20 1
  55   20   21 1
  56   21   22 1
  57   21  105 1
  58   21  106 1
  59   22   23 1
  60   22   26 2
  61   23   24 2
  62   24   25 1
  63   25   26 1
  64   25   27 1
  65   26  107 1
  66   27   28 1
  67   27  108 1
  68   27  109 1
  69   28   29 2
  70   28   30 1
  71   30   31 1
  72   31   32 1
  73   31   36 1
  74   31  110 1
  75   32   33 1
  76   32  111 1
  77   32  112 1
  78   33   34 1
  79   33  113 1
  80   33  114 1
  81   34   35 1
  82   34   69 1
  83   34   42 1
  84   35   36 1
  85   35   39 1
  86   35  115 1
  87   36   37 1
  88   36   38 1
  89   37  116 1
  90   37  117 1
  91   37  118 1
  92   38  119 1
  93   38  120 1
  94   38  121 1
  95   39   40 1
  96   39  122 1
  97   39  123 1
  98   40   41 1
  99   40  124 1
 100   40  125 1
 101   41   46 1
 102   41   68 1
 103   41   42 1
 104   42   43 1
 105   42  126 1
 106   43   44 1
 107   43  127 1
 108   43  128 1
 109   44   45 2
 110   44  129 1
 111   45   46 1
 112   45   51 1
 113   46   47 1
 114   46   48 1
 115   47  130 1
 116   47  131 1
 117   47  132 1
 118   48   49 1
 119   48  133 1
 120   48  134 1
 121   49   50 1
 122   49  135 1
 123   49  136 1
 124   50   58 1
 125   50   51 1
 126   50   57 1
 127   51   52 1
 128   51  137 1
 129   52   53 1
 130   52  138 1
 131   52  139 1
 132   53   54 1
 133   53   55 1
 134   53   56 1
 135   54  140 1
 136   54  141 1
 137   54  142 1
 138   55  143 1
 139   55  144 1
 140   55  145 1
 141   56   57 1
 142   56  146 1
 143   56  147 1
 144   57  148 1
 145   57  149 1
 146   58   59 2
 147   58   60 1
 148   60   61 1
 149   61   62 1
 150   61  150 1
 151   61  151 1
 152   62   63 ar
 153   62   67 ar
 154   63   64 ar
 155   63  152 1
 156   64   65 ar
 157   64  153 1
 158   65   66 ar
 159   65  154 1
 160   66   67 ar
 161   66  155 1
 162   67  156 1
 163   68  157 1
 164   68  158 1
 165   68  159 1
 166   69  160 1
 167   69  161 1
 168   69  162 1

#	End of record

