#	Name: ASD01811651
#	Creating user name:	WinNT
#	Creation time:	15. 06. 2019 19:27

#	Modifying user name:	WinNT
#	Modification time:	15. 06. 2019 19:27

#	Program:	/corina/corina34_cracker 3.40 0067  02.08.2006

@<TRIPOS>MOLECULE
ASD01811651
  52   55    0    0    0
SMALL
NO_CHARGES


@<TRIPOS>ATOM
   1 C1            -0.0171     1.4065     0.0098 C.ar    
   2 C2             0.0021    -0.0041     0.0020 C.ar    
   3 C3             1.1947    -0.6624    -0.0128 C.ar    
   4 C4             2.4009     0.0355    -0.0206 C.ar    
   5 C5             2.4225     1.3970    -0.0130 C.ar    
   6 C6             1.2144     2.1119     0.0018 C.ar    
   7 C7             1.1981     3.5195     0.0094 C.ar    
   8 C8            -0.0115     4.1513     0.0243 C.ar    
   9 C9            -1.1934     3.3952     0.0316 C.ar    
  10 N10           -1.1682     2.0767     0.0189 N.ar    
  11 C11            2.4825     4.3079     0.0018 C.3     
  12 C12            2.9623     4.4727    -1.4172 C.ar    
  13 C13           -2.5004     4.0944     0.0479 C.2     
  14 N14           -3.6452     3.3831     0.0550 N.am    
  15 O15           -2.5397     5.3088     0.0547 O.2     
  16 C16           -4.9369     4.0742     0.0711 C.3     
  17 C17           -5.3431     4.4345    -1.3612 C.3     
  18 C18           -6.7288     5.0850    -1.3420 C.3     
  19 O19           -7.6654     4.1900    -0.7389 O.3     
  20 C20           -7.3625     3.8550     0.6169 C.3     
  21 C21           -6.0023     3.1550     0.6764 C.3     
  22 O22           -5.6706     2.8707     2.0370 O.3     
  23 C23            2.5658     5.5637    -2.1787 C.ar    
  24 C24            3.0237     5.6845    -3.4754 C.ar    
  25 N25            3.8296     4.7781    -3.9953 N.ar    
  26 C26            4.2292     3.7253    -3.3018 C.ar    
  27 C27            3.8128     3.5429    -1.9891 C.ar    
  28 F28           -1.1566    -0.6987     0.0097 F       
  29 O29            5.0580     2.8175    -3.8762 O.3     
  30 C30            5.4547     3.0644    -5.2266 C.3     
  31 H31            1.2055    -1.7423    -0.0184 H       
  32 H32            3.3321    -0.5114    -0.0323 H       
  33 H33            3.3649     1.9245    -0.0188 H       
  34 H34           -0.0589     5.2303     0.0308 H       
  35 H35            2.3089     5.2894     0.4429 H       
  36 H36            3.2378     3.7775     0.5815 H       
  37 H37           -3.6138     2.4137     0.0496 H       
  38 H38           -4.8566     4.9834     0.6670 H       
  39 H39           -4.6187     5.1327    -1.7806 H       
  40 H40           -5.3735     3.5305    -1.9695 H       
  41 H41           -6.6881     6.0102    -0.7671 H       
  42 H42           -7.0414     5.3047    -2.3629 H       
  43 H43           -7.3301     4.7641     1.2174 H       
  44 H44           -8.1317     3.1885     1.0072 H       
  45 H45           -6.0460     2.2252     0.1092 H       
  46 H46           -6.3039     2.2924     2.4836 H       
  47 H47            1.9059     6.3097    -1.7611 H       
  48 H48            2.7182     6.5313    -4.0720 H       
  49 H49            4.1447     2.6845    -1.4240 H       
  50 H50            6.1147     2.2650    -5.5634 H       
  51 H51            4.5713     3.0991    -5.8642 H       
  52 H52            5.9806     4.0175    -5.2823 H       
@<TRIPOS>BOND
   1    1    2 ar
   2    1    6 ar
   3    1   10 ar
   4    2    3 ar
   5    2   28 1
   6    3    4 ar
   7    3   31 1
   8    4    5 ar
   9    4   32 1
  10    5    6 ar
  11    5   33 1
  12    6    7 ar
  13    7    8 ar
  14    7   11 1
  15    8    9 ar
  16    8   34 1
  17    9   10 ar
  18    9   13 1
  19   11   12 1
  20   11   35 1
  21   11   36 1
  22   12   23 ar
  23   12   27 ar
  24   13   14 am
  25   13   15 2
  26   14   16 1
  27   14   37 1
  28   16   17 1
  29   16   21 1
  30   16   38 1
  31   17   18 1
  32   17   39 1
  33   17   40 1
  34   18   19 1
  35   18   41 1
  36   18   42 1
  37   19   20 1
  38   20   21 1
  39   20   43 1
  40   20   44 1
  41   21   22 1
  42   21   45 1
  43   22   46 1
  44   23   24 ar
  45   23   47 1
  46   24   25 ar
  47   24   48 1
  48   25   26 ar
  49   26   27 ar
  50   26   29 1
  51   27   49 1
  52   29   30 1
  53   30   50 1
  54   30   51 1
  55   30   52 1

#	End of record

