#	Name: ASD01882132
#	Creating user name:	WinNT
#	Creation time:	15. 06. 2019 19:44

#	Modifying user name:	WinNT
#	Modification time:	15. 06. 2019 19:44

#	Program:	/corina/corina34_cracker 3.40 0067  02.08.2006

@<TRIPOS>MOLECULE
ASD01882132
  58   61    0    0    0
SMALL
NO_CHARGES


@<TRIPOS>ATOM
   1 C1             1.5306     0.7557    -0.3905 C.3     
   2 N2             1.0778    -0.6325    -0.2295 N.3     
   3 C3            -0.3089    -0.6813     0.2529 C.3     
   4 C4            -0.7373    -2.1181     0.4055 C.2     
   5 C5            -1.2406    -2.8253    -0.6998 C.2     
   6 C6            -1.6258    -4.1121    -0.5687 C.2     
   7 N7            -1.5322    -4.7434     0.6366 N.pl3   
   8 C8            -1.0444    -4.0783     1.7348 C.2     
   9 C9            -0.6333    -2.7370     1.6123 C.2     
  10 C10           -0.0894    -1.9944     2.8055 C.3     
  11 C11           -1.8335    -5.9991     1.0653 C.2     
  12 N12           -1.5386    -6.0617     2.3381 N.2     
  13 N13           -1.0719    -4.9333     2.7441 N.2     
  14 F14           -1.0796    -1.1513     3.3210 F       
  15 F15            0.3000    -2.9114     3.7877 F       
  16 C16            3.0552     0.8114    -0.2755 C.3     
  17 C17            3.5268     2.2572    -0.4432 C.3     
  18 C18            3.0996     2.7769    -1.8173 C.3     
  19 C19            1.5750     2.7212    -1.9323 C.3     
  20 C20            1.1034     1.2754    -1.7646 C.3     
  21 C21            3.5642     4.2010    -1.9824 C.ar    
  22 C22            4.4271     4.5318    -3.0104 C.ar    
  23 C23            4.8532     5.8380    -3.1619 C.ar    
  24 C24            4.4161     6.8137    -2.2855 C.ar    
  25 C25            3.5524     6.4831    -1.2580 C.ar    
  26 C26            3.1229     5.1776    -1.1092 C.ar    
  27 C27           -2.4035    -7.1140     0.2269 C.3     
  28 O28           -1.3365    -7.8714    -0.3475 O.3     
  29 C29           -1.7709    -8.9593    -1.1660 C.3     
  30 C30           -0.5517    -9.6955    -1.7249 C.3     
  31 F31            1.0163    -1.2312     2.4155 F       
  32 H32            1.0847     1.3758     0.3872 H       
  33 H33            1.1793    -1.1481    -1.0909 H       
  34 H34           -0.3760    -0.1778     1.2173 H       
  35 H35           -0.9608    -0.1820    -0.4638 H       
  36 H36           -1.3199    -2.3362    -1.6595 H       
  37 H37           -2.0114    -4.6459    -1.4247 H       
  38 H38            3.3595     0.4411     0.7034 H       
  39 H39            3.5011     0.1913    -1.0532 H       
  40 H40            3.0809     2.8773     0.3345 H       
  41 H41            4.6130     2.2969    -0.3613 H       
  42 H42            3.5455     2.1568    -2.5950 H       
  43 H43            1.1291     3.3413    -1.1546 H       
  44 H44            1.2707     3.0915    -2.9112 H       
  45 H45            1.5493     0.6553    -2.5423 H       
  46 H46            0.0172     1.2357    -1.8465 H       
  47 H47            4.7687     3.7695    -3.6951 H       
  48 H48            5.5280     6.0963    -3.9646 H       
  49 H49            4.7495     7.8341    -2.4034 H       
  50 H50            3.2111     7.2452    -0.5732 H       
  51 H51            2.4481     4.9193    -0.3065 H       
  52 H52           -3.0142    -7.7641     0.8534 H       
  53 H53           -3.0190    -6.6927    -0.5680 H       
  54 H54           -2.3685    -9.6476    -0.5683 H       
  55 H55           -2.3732    -8.5763    -1.9898 H       
  56 H56            0.0459    -9.0071    -2.3226 H       
  57 H57            0.0507   -10.0785    -0.9012 H       
  58 H58           -0.8830   -10.5253    -2.3492 H       
@<TRIPOS>BOND
   1    1    2 1
   2    1   16 1
   3    1   20 1
   4    1   32 1
   5    2    3 1
   6    2   33 1
   7    3    4 1
   8    3   34 1
   9    3   35 1
  10    4    5 1
  11    4    9 2
  12    5    6 2
  13    5   36 1
  14    6    7 1
  15    6   37 1
  16    7   11 1
  17    7    8 1
  18    8    9 1
  19    8   13 2
  20    9   10 1
  21   10   14 1
  22   10   15 1
  23   10   31 1
  24   11   12 2
  25   11   27 1
  26   12   13 1
  27   16   17 1
  28   16   38 1
  29   16   39 1
  30   17   18 1
  31   17   40 1
  32   17   41 1
  33   18   19 1
  34   18   21 1
  35   18   42 1
  36   19   20 1
  37   19   43 1
  38   19   44 1
  39   20   45 1
  40   20   46 1
  41   21   22 ar
  42   21   26 ar
  43   22   23 ar
  44   22   47 1
  45   23   24 ar
  46   23   48 1
  47   24   25 ar
  48   24   49 1
  49   25   26 ar
  50   25   50 1
  51   26   51 1
  52   27   28 1
  53   27   52 1
  54   27   53 1
  55   28   29 1
  56   29   30 1
  57   29   54 1
  58   29   55 1
  59   30   56 1
  60   30   57 1
  61   30   58 1

#	End of record

