#	Name: ASD05872043
#	Creating user name:	WinNT
#	Creation time:	15. 06. 2019 21:04

#	Modifying user name:	WinNT
#	Modification time:	15. 06. 2019 21:04

#	Program:	/corina/corina34_cracker 3.40 0067  02.08.2006

@<TRIPOS>MOLECULE
ASD05872043
  43   46    0    0    0
SMALL
NO_CHARGES


@<TRIPOS>ATOM
   1 C1             0.1269    -0.7683     0.4912 C.ar    
   2 C2             0.4068    -2.1335     0.3808 C.ar    
   3 C3            -0.6262    -3.0672     0.3839 C.ar    
   4 C4            -1.9348    -2.6525     0.4959 C.ar    
   5 C5            -2.2265    -1.3009     0.6061 C.ar    
   6 C6            -1.2208    -0.3675     0.6102 C.ar    
   7 N7             1.2358    -0.0025     0.4719 N.2     
   8 C8             2.3759    -0.5951     0.3587 C.2     
   9 S9             2.1526    -2.3358     0.2552 S.3     
  10 S10            3.9354     0.2237     0.3141 S.3     
  11 C11            5.0353    -1.2041     0.1470 C.3     
  12 C12            6.4653    -0.7323     0.0872 C.2     
  13 S13            7.3542    -0.3120    -1.3756 S.3     
  14 C14            7.2768    -0.5548     1.1357 C.2     
  15 N15            8.4892    -0.1357     0.8569 N.2     
  16 C16            8.7723     0.0637    -0.4002 C.2     
  17 C17           10.0702     0.5313    -0.9215 C.2     
  18 C18           11.0470     0.9309    -0.0591 C.2     
  19 C19           10.7400     1.1105     1.3657 C.ar    
  20 C20           11.6239     0.6352     2.3405 C.ar    
  21 C21            9.5639     1.7634     1.7551 C.ar    
  22 C22            9.2806     1.9292     3.0940 C.ar    
  23 C23           10.1544     1.4534     4.0555 C.ar    
  24 C24           11.3263     0.8090     3.6807 C.ar    
  25 O25           12.1794     0.3444     4.6313 O.3     
  26 S26           11.8991    -1.0861     5.0687 S.o2    
  27 O27           12.6359    -1.2987     6.3048 O.co2   
  28 O28           10.4616    -1.1907     5.2652 O.co2   
  29 O29           12.3681    -1.9517     3.9978 O.co2   
  30 C30           10.3042     0.5654    -2.3339 C.1     
  31 N31           10.4899     0.5925    -3.4543 N.1     
  32 H32           -0.4007    -4.1199     0.2978 H       
  33 H33           -2.7336    -3.3793     0.4976 H       
  34 H34           -3.2542    -0.9806     0.6933 H       
  35 H35           -1.4628     0.6815     0.6969 H       
  36 H36            4.9062    -1.8645     1.0044 H       
  37 H37            4.7925    -1.7446    -0.7679 H       
  38 H38            6.9544    -0.7441     2.1490 H       
  39 H39           12.0467     1.1155    -0.4235 H       
  40 H40           12.5350     0.1343     2.0482 H       
  41 H41            8.8799     2.1368     1.0075 H       
  42 H42            8.3734     2.4328     3.3935 H       
  43 H43            9.9262     1.5876     5.1025 H       
@<TRIPOS>BOND
   1    1    2 ar
   2    1    7 1
   3    1    6 ar
   4    2    3 ar
   5    2    9 1
   6    3    4 ar
   7    3   32 1
   8    4    5 ar
   9    4   33 1
  10    5    6 ar
  11    5   34 1
  12    6   35 1
  13    7    8 2
  14    8    9 1
  15    8   10 1
  16   10   11 1
  17   11   12 1
  18   11   36 1
  19   11   37 1
  20   12   13 1
  21   12   14 2
  22   13   16 1
  23   14   15 1
  24   14   38 1
  25   15   16 2
  26   16   17 1
  27   17   18 2
  28   17   30 1
  29   18   19 1
  30   18   39 1
  31   19   20 ar
  32   19   21 ar
  33   20   24 ar
  34   20   40 1
  35   21   22 ar
  36   21   41 1
  37   22   23 ar
  38   22   42 1
  39   23   24 ar
  40   23   43 1
  41   24   25 1
  42   25   26 1
  43   26   27 ar
  44   26   28 ar
  45   26   29 ar
  46   30   31 3

#	End of record

