#	Name: ASD05143110
#	Creating user name:	WinNT
#	Creation time:	15. 06. 2019 20:57

#	Modifying user name:	WinNT
#	Modification time:	15. 06. 2019 20:57

#	Program:	/corina/corina34_cracker 3.40 0067  02.08.2006

@<TRIPOS>MOLECULE
ASD05143110
 147  150    0    0    0
SMALL
NO_CHARGES


@<TRIPOS>ATOM
   1 C1             0.3340     0.8415    -3.7852 C.2     
   2 C2             0.4806    -0.5426    -4.3630 C.3     
   3 N3             1.4293     1.5487    -3.4438 N.am    
   4 O4            -0.7694     1.3210    -3.6322 O.2     
   5 C5             1.2868     2.8942    -2.8821 C.3     
   6 C6             0.5654     3.7931    -3.8884 C.3     
   7 C7             0.4865     2.8242    -1.6071 C.2     
   8 C8             1.4360     3.9648    -5.1347 C.3     
   9 C9             0.7146     4.8637    -6.1409 C.3     
  10 N10            1.5483     5.0281    -7.3343 N.pl3   
  11 C11            1.1045     5.8000    -8.3819 C.2     
  12 N12           -0.1218     6.4175    -8.3095 N.pl3   
  13 N13            1.8462     5.9463    -9.4436 N.2     
  14 O14           -0.2218     1.8645    -1.3877 O.2     
  15 N15            0.5580     3.8280    -0.7106 N.am    
  16 C16           -0.2200     3.7600     0.5289 C.3     
  17 C17            0.4555     4.6155     1.6025 C.3     
  18 C18            1.7272     3.9158     2.0865 C.3     
  19 C19            2.8263     4.9555     2.3143 C.3     
  20 N20            2.9056     5.2505     3.7633 N.am    
  21 C21            3.2079     6.5445     4.0812 C.2     
  22 C22            3.4267     7.5326     2.9646 C.3     
  23 C23            4.4014     8.6173     3.4272 C.3     
  24 C24            3.6355     9.6989     4.1916 C.3     
  25 N25            3.2626    10.7746     3.2515 N.am    
  26 C26            4.5103    10.2620     5.2818 C.2     
  27 N27            4.6549     9.5930     6.4429 N.am    
  28 O28            5.0843    11.3172     5.1144 O.2     
  29 C29            2.2393    11.5879     3.6318 C.2     
  30 O30            1.6788    11.4152     4.6934 O.2     
  31 C31            1.8129    12.7061     2.7159 C.3     
  32 N32            0.3333    12.7380     2.6657 N.am    
  33 C33            2.3373    14.0390     3.2539 C.3     
  34 C34           -0.2147    12.5274     1.4321 C.2     
  35 O35            0.4935    12.3323     0.4670 O.2     
  36 C36           -1.7151    12.5416     1.2924 C.3     
  37 N37           -2.1026    11.6016     0.2217 N.am    
  38 C38           -2.3570    12.1085     2.6120 C.3     
  39 C39           -3.1785    10.8057     0.4705 C.2     
  40 O40           -3.7761    10.8914     1.5224 O.2     
  41 C41           -3.6175     9.8170    -0.5789 C.3     
  42 C42            2.0154    15.1378     2.2742 C.2     
  43 C43            0.7605    15.8886     2.1883 C.ar    
  44 C44            0.9252    16.8014     1.1307 C.ar    
  45 N45            2.1898    16.6088     0.6212 N.pl3   
  46 C46            2.8263    15.6183     1.3183 C.2     
  47 C47           -0.4405    15.8560     2.8998 C.ar    
  48 C48           -1.4509    16.7124     2.5645 C.ar    
  49 C49           -1.2934    17.6148     1.5213 C.ar    
  50 C50           -0.1168    17.6644     0.8068 C.ar    
  51 N51           -3.6966     8.4748     0.0419 N.am    
  52 C52           -2.6006     9.7953    -1.7219 C.3     
  53 C53           -1.2070     9.7228    -1.1530 C.ar    
  54 C54           -0.7490     8.5430    -0.5970 C.ar    
  55 C55            0.5310     8.4742    -0.0743 C.ar    
  56 C56            1.3535     9.5892    -0.1088 C.ar    
  57 C57            0.8924    10.7712    -0.6667 C.ar    
  58 C58           -0.3864    10.8344    -1.1931 C.ar    
  59 C59           -1.6128     4.2768     0.2766 C.2     
  60 O60           -2.5507     3.5105     0.2137 O.2     
  61 C61           -1.9342    10.6748     2.9385 C.3     
  62 C62           -2.4788    10.2830     4.3135 C.3     
  63 N63           -2.0740     8.9102     4.6261 N.pl3   
  64 C64           -2.4499     8.3371     5.8179 C.2     
  65 N65           -2.0700     7.0488     6.1113 N.pl3   
  66 N66           -3.1665     9.0152     6.6697 N.2     
  67 N67           -1.8043     5.6154     0.1208 N.am    
  68 C68           -3.1900     6.0598    -0.1294 C.3     
  69 C69           -3.1582     7.4570    -0.6935 C.2     
  70 O70           -2.6639     7.6738    -1.7796 O.2     
  71 C71           -3.9750     6.0549     1.1839 C.3     
  72 C72           -5.4546     6.3158     0.8946 C.3     
  73 C73           -6.2458     6.1900     2.1710 C.2     
  74 F74            2.6028     9.5241     0.4012 F       
  75 F75            0.9780     7.3210     0.4694 F       
  76 F76            1.6921    11.8595    -0.7010 F       
  77 O77           -5.6818     5.9183     3.2098 O.2     
  78 N78           -7.5802     6.3793     2.1582 N.am    
  79 O79            3.2987     6.8912     5.2398 O.2     
  80 H80            0.4785    -1.2753    -3.5559 H       
  81 H81           -0.3505    -0.7441    -5.0388 H       
  82 H82            1.4199    -0.6095    -4.9120 H       
  83 H83            2.3120     1.1668    -3.5698 H       
  84 H84            2.2736     3.3057    -2.6696 H       
  85 H85           -0.3838     3.3362    -4.1684 H       
  86 H86            0.3803     4.7680    -3.4373 H       
  87 H87            2.3852     4.4217    -4.8546 H       
  88 H88            1.6211     2.9900    -5.5858 H       
  89 H89           -0.2346     4.4068    -6.4209 H       
  90 H90            0.5295     5.8386    -5.6898 H       
  91 H91            2.4135     4.5925    -7.3853 H       
  92 H92           -0.6738     6.3086    -7.5194 H       
  93 H93           -0.4349     6.9620    -9.0487 H       
  94 H94            1.5330     6.4908   -10.1827 H       
  95 H95            1.1245     4.5956    -0.8861 H       
  96 H96           -0.2724     2.7255     0.8685 H       
  97 H97            0.7130     5.5881     1.1832 H       
  98 H98           -0.2267     4.7507     2.4418 H       
  99 H99            1.5215     3.3938     3.0210 H       
 100 H100           2.0559     3.1985     1.3344 H       
 101 H101           3.7813     4.5599     1.9687 H       
 102 H102           2.5860     5.8675     1.7679 H       
 103 H103           2.7533     4.5723     4.4398 H       
 104 H104           3.8417     7.0165     2.0988 H       
 105 H105           2.4756     7.9906     2.6931 H       
 106 H106           5.1541     8.1751     4.0799 H       
 107 H107           4.8889     9.0618     2.5595 H       
 108 H108           2.7350     9.2682     4.6295 H       
 109 H109           3.7233    10.8958     2.4065 H       
 110 H110           4.1959     8.7490     6.5767 H       
 111 H111           5.2181     9.9555     7.1446 H       
 112 H112           2.2092    12.5311     1.7157 H       
 113 H113          -0.2091    12.8976     3.4538 H       
 114 H114           1.8639    14.2558     4.2115 H       
 115 H115           3.4172    13.9769     3.3883 H       
 116 H116          -2.0485    13.5468     1.0344 H       
 117 H117          -1.6158    11.5539    -0.6160 H       
 118 H118          -2.0304    12.7744     3.4107 H       
 119 H119          -3.4422    12.1554     2.5208 H       
 120 H120          -4.5974    10.1012    -0.9625 H       
 121 H121           2.5736    17.1042    -0.1192 H       
 122 H122           3.8296    15.2693     1.1234 H       
 123 H123          -0.5703    15.1562     3.7121 H       
 124 H124          -2.3796    16.6869     3.1152 H       
 125 H125          -2.1014    18.2852     1.2679 H       
 126 H126          -0.0039    18.3702    -0.0028 H       
 127 H127          -4.1024     8.3284     0.9107 H       
 128 H128          -2.7814     8.9249    -2.3526 H       
 129 H129          -2.7034    10.7028    -2.3169 H       
 130 H130          -1.3904     7.6745    -0.5700 H       
 131 H131          -0.7461    11.7552    -1.6279 H       
 132 H132          -2.3329     9.9975     2.1833 H       
 133 H133          -0.8461    10.6098     2.9467 H       
 134 H134          -2.0801    10.9603     5.0687 H       
 135 H135          -3.5669    10.3480     4.3053 H       
 136 H136          -1.5407     8.4056     3.9922 H       
 137 H137          -1.5366     6.5442     5.4774 H       
 138 H138          -2.3352     6.6445     6.9522 H       
 139 H139          -3.4318     8.6109     7.5106 H       
 140 H140          -1.0682     6.2451     0.1718 H       
 141 H141          -3.6656     5.3881    -0.8440 H       
 142 H142          -3.8652     5.0851     1.6692 H       
 143 H143          -3.5900     6.8353     1.8403 H       
 144 H144          -5.5741     7.3211     0.4907 H       
 145 H145          -5.8170     5.5874     0.1692 H       
 146 H146          -8.0312     6.5965     1.3274 H       
 147 H147          -8.0894     6.2983     2.9798 H       
@<TRIPOS>BOND
   1    1    2 1
   2    1    3 am
   3    1    4 2
   4    2   80 1
   5    2   81 1
   6    2   82 1
   7    3    5 1
   8    3   83 1
   9    5    6 1
  10    5    7 1
  11    5   84 1
  12    6    8 1
  13    6   85 1
  14    6   86 1
  15    7   14 2
  16    7   15 am
  17    8    9 1
  18    8   87 1
  19    8   88 1
  20    9   10 1
  21    9   89 1
  22    9   90 1
  23   10   11 1
  24   10   91 1
  25   11   12 1
  26   11   13 2
  27   12   92 1
  28   12   93 1
  29   13   94 1
  30   15   16 1
  31   15   95 1
  32   16   17 1
  33   16   59 1
  34   16   96 1
  35   17   18 1
  36   17   97 1
  37   17   98 1
  38   18   19 1
  39   18   99 1
  40   18  100 1
  41   19   20 1
  42   19  101 1
  43   19  102 1
  44   20   21 am
  45   20  103 1
  46   21   22 1
  47   21   79 2
  48   22   23 1
  49   22  104 1
  50   22  105 1
  51   23   24 1
  52   23  106 1
  53   23  107 1
  54   24   25 1
  55   24   26 1
  56   24  108 1
  57   25   29 am
  58   25  109 1
  59   26   27 am
  60   26   28 2
  61   27  110 1
  62   27  111 1
  63   29   30 2
  64   29   31 1
  65   31   32 1
  66   31   33 1
  67   31  112 1
  68   32   34 am
  69   32  113 1
  70   33   42 1
  71   33  114 1
  72   33  115 1
  73   34   35 2
  74   34   36 1
  75   36   37 1
  76   36   38 1
  77   36  116 1
  78   37   39 am
  79   37  117 1
  80   38   61 1
  81   38  118 1
  82   38  119 1
  83   39   40 2
  84   39   41 1
  85   41   51 1
  86   41   52 1
  87   41  120 1
  88   42   43 1
  89   42   46 2
  90   43   44 ar
  91   43   47 ar
  92   44   45 1
  93   44   50 ar
  94   45   46 1
  95   45  121 1
  96   46  122 1
  97   47   48 ar
  98   47  123 1
  99   48   49 ar
 100   48  124 1
 101   49   50 ar
 102   49  125 1
 103   50  126 1
 104   51   69 am
 105   51  127 1
 106   52   53 1
 107   52  128 1
 108   52  129 1
 109   53   54 ar
 110   53   58 ar
 111   54   55 ar
 112   54  130 1
 113   55   56 ar
 114   55   75 1
 115   56   57 ar
 116   56   74 1
 117   57   58 ar
 118   57   76 1
 119   58  131 1
 120   59   60 2
 121   59   67 am
 122   61   62 1
 123   61  132 1
 124   61  133 1
 125   62   63 1
 126   62  134 1
 127   62  135 1
 128   63   64 1
 129   63  136 1
 130   64   65 1
 131   64   66 2
 132   65  137 1
 133   65  138 1
 134   66  139 1
 135   67   68 1
 136   67  140 1
 137   68   69 1
 138   68   71 1
 139   68  141 1
 140   69   70 2
 141   71   72 1
 142   71  142 1
 143   71  143 1
 144   72   73 1
 145   72  144 1
 146   72  145 1
 147   73   77 2
 148   73   78 am
 149   78  146 1
 150   78  147 1

#	End of record

