#	Name: ASD03331916
#	Creating user name:	WinNT
#	Creation time:	15. 06. 2019 20:40

#	Modifying user name:	WinNT
#	Modification time:	15. 06. 2019 20:40

#	Program:	/corina/corina34_cracker 3.40 0067  02.08.2006

@<TRIPOS>MOLECULE
ASD03331916
  60   62    0    0    0
SMALL
NO_CHARGES


@<TRIPOS>ATOM
   1 C1            -0.0617     2.0061     1.7851 C.2     
   2 N2            -0.1510     0.7149     2.2011 N.pl3   
   3 C3             1.0656     0.1331     1.9949 C.2     
   4 N4             1.8790     1.0315     1.4910 N.2     
   5 C5             1.2148     2.1998     1.3519 C.2     
   6 C6             1.7716     3.4581     0.8249 C.2     
   7 O7             1.0698     4.4484     0.7476 O.2     
   8 N8             3.0587     3.5117     0.4285 N.am    
   9 C9             3.6123     4.7628    -0.0954 C.3     
  10 C10            3.3007     4.8722    -1.5894 C.3     
  11 C11            4.0056     3.7416    -2.3415 C.3     
  12 C12            5.1054     4.7757     0.1085 C.2     
  13 C13            1.7898     4.7635    -1.8045 C.3     
  14 C14            3.7951     6.2210    -2.1160 C.3     
  15 O15            5.6881     3.7496     0.3887 O.2     
  16 N16            5.7932     5.9276    -0.0204 N.am    
  17 C17            7.2529     5.9271     0.1047 C.3     
  18 C18           -1.3430     0.0884     2.7793 C.3     
  19 C19           -2.5599     0.4313     1.9144 C.3     
  20 C20           -3.1673     1.7512     2.3786 C.3     
  21 N21           -2.1318     2.6667     2.8621 N.3     
  22 C22           -1.1827     3.0129     1.7936 C.3     
  23 C23           -2.7285     3.8744     3.4479 C.3     
  24 C24            1.4105    -1.2745     2.2902 C.ar    
  25 C25            2.0959    -2.0416     1.3457 C.ar    
  26 C26            2.4154    -3.3586     1.6302 C.ar    
  27 C27            2.0561    -3.9122     2.8472 C.ar    
  28 C28            1.3769    -3.1547     3.7851 C.ar    
  29 C29            1.0574    -1.8401     3.5162 C.ar    
  30 F30            2.4457    -1.5006     0.1582 F       
  31 F31            3.0781    -4.1042     0.7190 F       
  32 H32            3.6184     2.7219     0.4902 H       
  33 H33            3.1663     5.6063     0.4315 H       
  34 H34            3.6535     2.7807    -1.9664 H       
  35 H35            3.7836     3.8196    -3.4058 H       
  36 H36            5.0820     3.8191    -2.1883 H       
  37 H37            1.2876     5.5689    -1.2686 H       
  38 H38            1.5678     4.8414    -2.8688 H       
  39 H39            1.4376     3.8026    -1.4293 H       
  40 H40            4.8397     6.3592    -1.8371 H       
  41 H41            3.7030     6.2429    -3.2019 H       
  42 H42            3.1947     7.0218    -1.6842 H       
  43 H43            5.3218     6.7569    -0.1960 H       
  44 H44            7.5327     5.5625     1.0931 H       
  45 H45            7.6826     5.2770    -0.6574 H       
  46 H46            7.6293     6.9413    -0.0284 H       
  47 H47           -1.2090    -0.9929     2.8074 H       
  48 H48           -1.4975     0.4638     3.7909 H       
  49 H49           -2.2507     0.5210     0.8730 H       
  50 H50           -3.3031    -0.3610     2.0040 H       
  51 H51           -3.6940     2.2154     1.5449 H       
  52 H52           -3.8757     1.5555     3.1836 H       
  53 H53           -0.7772     4.0083     1.9747 H       
  54 H54           -1.6949     2.9962     0.8316 H       
  55 H55           -3.3666     3.5945     4.2861 H       
  56 H56           -1.9374     4.5370     3.7989 H       
  57 H57           -3.3244     4.3879     2.6933 H       
  58 H58            2.3067    -4.9398     3.0654 H       
  59 H59            1.0997    -3.5930     4.7325 H       
  60 H60            0.5272    -1.2516     4.2503 H       
@<TRIPOS>BOND
   1    1    2 1
   2    1    5 2
   3    1   22 1
   4    2    3 1
   5    2   18 1
   6    3    4 2
   7    3   24 1
   8    4    5 1
   9    5    6 1
  10    6    7 2
  11    6    8 am
  12    8    9 1
  13    8   32 1
  14    9   10 1
  15    9   12 1
  16    9   33 1
  17   10   11 1
  18   10   13 1
  19   10   14 1
  20   11   34 1
  21   11   35 1
  22   11   36 1
  23   12   15 2
  24   12   16 am
  25   13   37 1
  26   13   38 1
  27   13   39 1
  28   14   40 1
  29   14   41 1
  30   14   42 1
  31   16   17 1
  32   16   43 1
  33   17   44 1
  34   17   45 1
  35   17   46 1
  36   18   19 1
  37   18   47 1
  38   18   48 1
  39   19   20 1
  40   19   49 1
  41   19   50 1
  42   20   21 1
  43   20   51 1
  44   20   52 1
  45   21   22 1
  46   21   23 1
  47   22   53 1
  48   22   54 1
  49   23   55 1
  50   23   56 1
  51   23   57 1
  52   24   25 ar
  53   24   29 ar
  54   25   26 ar
  55   25   30 1
  56   26   27 ar
  57   26   31 1
  58   27   28 ar
  59   27   58 1
  60   28   29 ar
  61   28   59 1
  62   29   60 1

#	End of record

