#	Name: ASD03082002
#	Creating user name:	WinNT
#	Creation time:	15. 06. 2019 20:27

#	Modifying user name:	WinNT
#	Modification time:	15. 06. 2019 20:27

#	Program:	/corina/corina34_cracker 3.40 0067  02.08.2006

@<TRIPOS>MOLECULE
ASD03082002
  37   38    0    0    0
SMALL
NO_CHARGES


@<TRIPOS>ATOM
   1 C1             0.4069    -0.6082    -1.2969 C.ar    
   2 C2             0.8189    -1.8980    -0.9885 C.ar    
   3 C3             2.0984    -2.1371    -0.5338 C.ar    
   4 C4             2.9867    -1.0778    -0.3822 C.ar    
   5 C5             2.5640     0.2269    -0.6966 C.ar    
   6 C6             1.2639     0.4467    -1.1550 C.ar    
   7 N7             4.2950    -0.9907     0.0379 N.pl3   
   8 C8             4.7100     0.3129     0.0000 C.2     
   9 C9             3.7121     1.0984    -0.4346 C.2     
  10 Br10          -0.3867    -3.3403    -1.1936 Br      
  11 C11            3.7632     2.5933    -0.6186 C.3     
  12 C12            4.1012     2.9166    -2.0753 C.3     
  13 N13            4.0438     4.3701    -2.2804 N.3     
  14 C14            6.0838     0.7951     0.3888 C.3     
  15 C15            5.9784     1.6959     1.6210 C.3     
  16 C16            6.9741    -0.4069     0.7104 C.3     
  17 C17            6.6846     1.5740    -0.7530 C.2     
  18 C18            7.1422     2.7847    -0.5509 C.2     
  19 H19           -0.5973    -0.4380    -1.6559 H       
  20 H20            2.4096    -3.1435    -0.2958 H       
  21 H21            0.9367     1.4470    -1.3975 H       
  22 H22            4.8413    -1.7414     0.3188 H       
  23 H23            2.7941     3.0238    -0.3663 H       
  24 H24            4.5285     3.0137     0.0339 H       
  25 H25            5.1043     2.5567    -2.3040 H       
  26 H26            3.3815     2.4282    -2.7323 H       
  27 H27            4.6554     4.8504    -1.6375 H       
  28 H28            4.2634     4.6094    -3.2357 H       
  29 H29            5.4796     1.1549     2.4250 H       
  30 H30            6.9777     1.9874     1.9445 H       
  31 H31            5.4030     2.5873     1.3712 H       
  32 H32            7.0521    -1.0468    -0.1685 H       
  33 H33            7.9668    -0.0580     0.9950 H       
  34 H34            6.5378    -0.9722     1.5339 H       
  35 H35            6.7378     1.1340    -1.7379 H       
  36 H36            7.0890     3.2246     0.4340 H       
  37 H37            7.5727     3.3428    -1.3691 H       
@<TRIPOS>BOND
   1    1    2 ar
   2    1    6 ar
   3    1   19 1
   4    2    3 ar
   5    2   10 1
   6    3    4 ar
   7    3   20 1
   8    4    5 ar
   9    4    7 1
  10    5    6 ar
  11    5    9 1
  12    6   21 1
  13    7    8 1
  14    7   22 1
  15    8    9 2
  16    8   14 1
  17    9   11 1
  18   11   12 1
  19   11   23 1
  20   11   24 1
  21   12   13 1
  22   12   25 1
  23   12   26 1
  24   13   27 1
  25   13   28 1
  26   14   15 1
  27   14   16 1
  28   14   17 1
  29   15   29 1
  30   15   30 1
  31   15   31 1
  32   16   32 1
  33   16   33 1
  34   16   34 1
  35   17   18 2
  36   17   35 1
  37   18   36 1
  38   18   37 1

#	End of record

