#	Name: ASD03331046
#	Creating user name:	WinNT
#	Creation time:	15. 06. 2019 20:38

#	Modifying user name:	WinNT
#	Modification time:	15. 06. 2019 20:38

#	Program:	/corina/corina34_cracker 3.40 0067  02.08.2006

@<TRIPOS>MOLECULE
ASD03331046
  71   74    0    0    0
SMALL
NO_CHARGES


@<TRIPOS>ATOM
   1 N1             0.0501     1.1536    -0.7842 N.pl3   
   2 C2             0.0558    -0.1782    -0.5106 C.2     
   3 C3             1.2775    -1.0080    -0.2136 C.3     
   4 N4             2.1087    -0.3053     0.7763 N.3     
   5 C5             3.0603     0.5968     0.1250 C.3     
   6 C6             2.4643     1.1932    -1.1469 C.3     
   7 C7             1.2276     2.0261    -0.7989 C.3     
   8 C8            -1.2431     1.5154    -1.0262 C.2     
   9 N9            -2.0068     0.4568    -0.8902 N.2     
  10 C10           -1.2358    -0.6053    -0.5692 C.2     
  11 C11           -1.7082    -1.9798    -0.3264 C.2     
  12 O12           -0.9126    -2.8551    -0.0434 O.2     
  13 N13           -3.0218    -2.2670    -0.4178 N.am    
  14 C14            2.8022    -1.2584     1.6530 C.3     
  15 C15           -4.7952    -3.8518    -0.9001 C.2     
  16 C16           -3.4914    -3.6335    -0.1765 C.3     
  17 C17           -3.7000    -3.8434     1.3247 C.3     
  18 C18           -4.7969    -2.9008     1.8239 C.3     
  19 O19           -5.4312    -2.9014    -1.3039 O.2     
  20 C20           -4.1160    -5.2928     1.5840 C.3     
  21 C21           -2.3956    -3.5466     2.0672 C.3     
  22 N22           -5.2543    -5.1033    -1.0986 N.am    
  23 C23           -6.5596    -5.3131    -1.7300 C.3     
  24 C24           -7.1495    -6.6754    -1.3105 C.3     
  25 C25           -7.8564    -7.2490    -2.5511 C.3     
  26 C26           -7.6714    -6.2153    -3.6811 C.3     
  27 C27           -6.4067    -5.4226    -3.2674 C.3     
  28 O28           -6.1029    -7.5545    -0.8933 O.3     
  29 C29           -1.7069     2.8741    -1.3819 C.ar    
  30 C30           -2.6060     3.0552    -2.4363 C.ar    
  31 C31           -3.0354     4.3277    -2.7628 C.ar    
  32 C32           -2.5771     5.4195    -2.0484 C.ar    
  33 C33           -1.6859     5.2462    -1.0031 C.ar    
  34 C34           -1.2533     3.9798    -0.6627 C.ar    
  35 F35           -3.0539     1.9892    -3.1351 F       
  36 Cl36          -1.1161     6.6239    -0.1137 Cl      
  37 H37            0.9727    -1.9748     0.1871 H       
  38 H38            1.8490    -1.1560    -1.1299 H       
  39 H39            3.3175     1.4029     0.8121 H       
  40 H40            3.9636     0.0420    -0.1288 H       
  41 H41            3.2054     1.8296    -1.6306 H       
  42 H42            2.1802     0.3890    -1.8257 H       
  43 H43            1.0926     2.8079    -1.5463 H       
  44 H44            1.3580     2.4788     0.1841 H       
  45 H45           -3.6563    -1.5688    -0.6435 H       
  46 H46            3.3893    -1.9485     1.0470 H       
  47 H47            3.4631    -0.7158     2.3289 H       
  48 H48            2.0688    -1.8181     2.2335 H       
  49 H49           -2.7493    -4.3428    -0.5429 H       
  50 H50           -5.7262    -3.1123     1.2949 H       
  51 H51           -4.9455    -3.0504     2.8933 H       
  52 H52           -4.5006    -1.8683     1.6391 H       
  53 H53           -3.3247    -5.9634     1.2491 H       
  54 H54           -4.2867    -5.4364     2.6509 H       
  55 H55           -5.0331    -5.5110     1.0367 H       
  56 H56           -2.0993    -2.5140     1.8824 H       
  57 H57           -2.5442    -3.6961     3.1366 H       
  58 H58           -1.6142    -4.2181     1.7115 H       
  59 H59           -4.7206    -5.8651    -0.8234 H       
  60 H60           -7.2439    -4.5051    -1.4712 H       
  61 H61           -7.8672    -6.5384    -0.5017 H       
  62 H62           -7.4013    -8.1979    -2.8349 H       
  63 H63           -8.9173    -7.3904    -2.3443 H       
  64 H64           -7.5118    -6.7175    -4.6352 H       
  65 H65           -8.5353    -5.5530    -3.7374 H       
  66 H66           -6.4030    -4.4340    -3.7266 H       
  67 H67           -5.5030    -5.9738    -3.5275 H       
  68 H68           -6.4104    -8.4286    -0.6169 H       
  69 H69           -3.7299     4.4697    -3.5776 H       
  70 H70           -2.9156     6.4119    -2.3073 H       
  71 H71           -0.5619     3.8460     0.1561 H       
@<TRIPOS>BOND
   1    1    2 1
   2    1    7 1
   3    1    8 1
   4    2    3 1
   5    2   10 2
   6    3    4 1
   7    3   37 1
   8    3   38 1
   9    4    5 1
  10    4   14 1
  11    5    6 1
  12    5   39 1
  13    5   40 1
  14    6    7 1
  15    6   41 1
  16    6   42 1
  17    7   43 1
  18    7   44 1
  19    8    9 2
  20    8   29 1
  21    9   10 1
  22   10   11 1
  23   11   12 2
  24   11   13 am
  25   13   16 1
  26   13   45 1
  27   14   46 1
  28   14   47 1
  29   14   48 1
  30   15   19 2
  31   15   22 am
  32   15   16 1
  33   16   17 1
  34   16   49 1
  35   17   18 1
  36   17   20 1
  37   17   21 1
  38   18   50 1
  39   18   51 1
  40   18   52 1
  41   20   53 1
  42   20   54 1
  43   20   55 1
  44   21   56 1
  45   21   57 1
  46   21   58 1
  47   22   23 1
  48   22   59 1
  49   23   24 1
  50   23   27 1
  51   23   60 1
  52   24   25 1
  53   24   28 1
  54   24   61 1
  55   25   26 1
  56   25   62 1
  57   25   63 1
  58   26   27 1
  59   26   64 1
  60   26   65 1
  61   27   66 1
  62   27   67 1
  63   28   68 1
  64   29   30 ar
  65   29   34 ar
  66   30   31 ar
  67   30   35 1
  68   31   32 ar
  69   31   69 1
  70   32   33 ar
  71   32   70 1
  72   33   34 ar
  73   33   36 1
  74   34   71 1

#	End of record

