#	Name: ASD01883069
#	Creating user name:	WinNT
#	Creation time:	15. 06. 2019 19:45

#	Modifying user name:	WinNT
#	Modification time:	15. 06. 2019 19:45

#	Program:	/corina/corina34_cracker 3.40 0067  02.08.2006

@<TRIPOS>MOLECULE
ASD01883069
  33   35    0    0    0
SMALL
NO_CHARGES


@<TRIPOS>ATOM
   1 N1            -0.0162     1.3415     0.0094 N.am    
   2 C2             0.0021    -0.0041     0.0020 C.2     
   3 C3            -1.2147    -0.7275     0.0097 C.2     
   4 C4            -2.4281    -0.0090     0.0252 C.2     
   5 C5            -2.3787     1.4024     0.0323 C.2     
   6 C6            -1.1854     2.0347     0.0299 C.2     
   7 O7             1.0659    -0.5997    -0.0117 O.2     
   8 C8            -1.2134    -2.1595     0.0016 C.1     
   9 N9            -1.2124    -3.2955    -0.0049 N.1     
  10 C10            1.2518     2.0753     0.0013 C.3     
  11 C11            1.6730     2.3346    -1.4223 C.ar    
  12 C12            1.2662     3.4899    -2.0634 C.ar    
  13 C13            1.6522     3.7289    -3.3687 C.ar    
  14 C14            2.4467     2.8108    -4.0343 C.ar    
  15 C15            2.8534     1.6540    -3.3911 C.ar    
  16 C16            2.4705     1.4197    -2.0841 C.ar    
  17 C17           -3.7166    -0.7140     0.0332 C.2     
  18 F18            2.8243     3.0432    -5.3105 F       
  19 C19           -4.6351    -0.6951     1.0434 C.2     
  20 C20           -5.7083    -1.5010     0.6287 C.2     
  21 C21           -5.4012    -1.9700    -0.6002 C.2     
  22 O22           -4.2021    -1.4884    -0.9581 O.3     
  23 H23           -3.2941     1.9754     0.0441 H       
  24 H24           -1.1596     3.1144     0.0358 H       
  25 H25            1.1254     3.0248     0.5214 H       
  26 H26            2.0169     1.4843     0.5046 H       
  27 H27            0.6463     4.2057    -1.5441 H       
  28 H28            1.3341     4.6313    -3.8695 H       
  29 H29            3.4731     0.9372    -3.9093 H       
  30 H30            2.7877     0.5175    -1.5822 H       
  31 H31           -4.5524    -0.1637     1.9800 H       
  32 H32           -6.6092    -1.7074     1.1876 H       
  33 H33           -6.0211    -2.6220    -1.1977 H       
@<TRIPOS>BOND
   1    1    2 am
   2    1   10 1
   3    1    6 1
   4    2    3 1
   5    2    7 2
   6    3    4 2
   7    3    8 1
   8    4    5 1
   9    4   17 1
  10    5    6 2
  11    5   23 1
  12    6   24 1
  13    8    9 3
  14   10   11 1
  15   10   25 1
  16   10   26 1
  17   11   12 ar
  18   11   16 ar
  19   12   13 ar
  20   12   27 1
  21   13   14 ar
  22   13   28 1
  23   14   15 ar
  24   14   18 1
  25   15   16 ar
  26   15   29 1
  27   16   30 1
  28   17   19 2
  29   17   22 1
  30   19   20 1
  31   19   31 1
  32   20   21 2
  33   20   32 1
  34   21   22 1
  35   21   33 1

#	End of record

