#	Name: ASD01815855
#	Creating user name:	WinNT
#	Creation time:	15. 06. 2019 19:34

#	Modifying user name:	WinNT
#	Modification time:	15. 06. 2019 19:34

#	Program:	/corina/corina34_cracker 3.40 0067  02.08.2006

@<TRIPOS>MOLECULE
ASD01815855
  63   68    0    0    0
SMALL
NO_CHARGES


@<TRIPOS>ATOM
   1 C1             0.1256     0.9775    -1.2563 C.ar    
   2 C2             0.2365    -0.4052    -1.3075 C.ar    
   3 C3            -0.8846    -1.1791    -1.5380 C.ar    
   4 C4            -2.1168    -0.5787    -1.7183 C.ar    
   5 C5            -2.2329     0.7986    -1.6683 C.ar    
   6 C6            -1.1164     1.5793    -1.4323 C.ar    
   7 F7            -1.2295     2.9247    -1.3829 F       
   8 N8             1.2600     1.7645    -1.0223 N.am    
   9 C9             2.1253     2.1734    -1.9760 C.2     
  10 N10            1.6546     2.2434     0.2301 N.2     
  11 C11            2.7513     2.9477     0.1358 C.2     
  12 C12            3.1433     2.9601    -1.2902 C.2     
  13 O13            2.0669     1.9321    -3.1713 O.2     
  14 C14            3.6052     3.6744     1.0888 C.2     
  15 C15            4.6868     4.3110     0.6215 C.2     
  16 N16            5.0021     4.2806    -0.7179 N.pl3   
  17 C17            4.2781     3.6442    -1.6470 C.2     
  18 C18            6.2051     4.9931    -1.1555 C.3     
  19 C19            5.8290     6.3776    -1.6167 C.ar    
  20 C20            5.9352     7.4473    -0.7468 C.ar    
  21 C21            5.5909     8.7173    -1.1665 C.ar    
  22 C22            5.1382     8.9194    -2.4634 C.ar    
  23 C23            5.0331     7.8435    -3.3346 C.ar    
  24 C24            5.3839     6.5766    -2.9107 C.ar    
  25 N25            4.7875    10.2072    -2.8922 N.pl3   
  26 C26            4.3349    10.5408    -4.1220 C.2     
  27 C27            4.1124    11.8755    -4.1307 C.2     
  28 C28            4.4393    12.3750    -2.8653 C.2     
  29 N29            4.8382    11.3754    -2.1207 N.2     
  30 C30            3.2181     3.6530     2.5420 C.3     
  31 C31            3.9270     4.7669     3.3096 C.3     
  32 C32            5.4231     4.6951     2.9789 C.3     
  33 C33            5.6093     5.0991     1.5189 C.3     
  34 O34            1.8046     3.8305     2.6546 O.3     
  35 C35            1.2273     3.1902     3.7942 C.3     
  36 C36           -0.2584     3.4418     3.8129 C.2     
  37 C37           -1.0863     2.4578     4.0628 C.2     
  38 H38            1.1985    -0.8758    -1.1676 H       
  39 H39           -0.7981    -2.2549    -1.5778 H       
  40 H40           -2.9910    -1.1867    -1.8990 H       
  41 H41           -3.1970     1.2644    -1.8095 H       
  42 H42            4.5898     3.6670    -2.6808 H       
  43 H43            6.9071     5.0650    -0.3247 H       
  44 H44            6.6701     4.4499    -1.9781 H       
  45 H45            6.2874     7.2894     0.2619 H       
  46 H46            5.6733     9.5522    -0.4865 H       
  47 H47            4.6810     7.9976    -4.3439 H       
  48 H48            5.3024     5.7393    -3.5879 H       
  49 H49            4.1796     9.8637    -4.9489 H       
  50 H50            3.7469    12.4532    -4.9668 H       
  51 H51            4.3701    13.4072    -2.5549 H       
  52 H52            3.4931     2.6900     2.9722 H       
  53 H53            3.5287     5.7348     3.0053 H       
  54 H54            3.7795     4.6276     4.3806 H       
  55 H55            5.9752     5.3794     3.6230 H       
  56 H56            5.7840     3.6774     3.1276 H       
  57 H57            6.6419     4.9123     1.2241 H       
  58 H58            5.3930     6.1619     1.4106 H       
  59 H59            1.4136     2.1175     3.7415 H       
  60 H60            1.6754     3.5925     4.7028 H       
  61 H61           -0.6407     4.4333     3.6202 H       
  62 H62           -0.7040     1.4662     4.2554 H       
  63 H63           -2.1510     2.6381     4.0761 H       
@<TRIPOS>BOND
   1    1    2 ar
   2    1    8 1
   3    1    6 ar
   4    2    3 ar
   5    2   38 1
   6    3    4 ar
   7    3   39 1
   8    4    5 ar
   9    4   40 1
  10    5    6 ar
  11    5   41 1
  12    6    7 1
  13    8    9 am
  14    8   10 1
  15    9   13 2
  16    9   12 1
  17   10   11 2
  18   11   12 1
  19   11   14 1
  20   12   17 2
  21   14   15 2
  22   14   30 1
  23   15   16 1
  24   15   33 1
  25   16   17 1
  26   16   18 1
  27   17   42 1
  28   18   19 1
  29   18   43 1
  30   18   44 1
  31   19   20 ar
  32   19   24 ar
  33   20   21 ar
  34   20   45 1
  35   21   22 ar
  36   21   46 1
  37   22   23 ar
  38   22   25 1
  39   23   24 ar
  40   23   47 1
  41   24   48 1
  42   25   26 1
  43   25   29 1
  44   26   27 2
  45   26   49 1
  46   27   28 1
  47   27   50 1
  48   28   29 2
  49   28   51 1
  50   30   31 1
  51   30   34 1
  52   30   52 1
  53   31   32 1
  54   31   53 1
  55   31   54 1
  56   32   33 1
  57   32   55 1
  58   32   56 1
  59   33   57 1
  60   33   58 1
  61   34   35 1
  62   35   36 1
  63   35   59 1
  64   35   60 1
  65   36   37 2
  66   36   61 1
  67   37   62 1
  68   37   63 1

#	End of record

