#	Name: ASD09116322
#	Creating user name:	WinNT
#	Creation time:	15. 06. 2019 21:21

#	Modifying user name:	WinNT
#	Modification time:	15. 06. 2019 21:21

#	Program:	/corina/corina34_cracker 3.40 0067  02.08.2006

@<TRIPOS>MOLECULE
ASD09116322
  66   71    0    0    0
SMALL
NO_CHARGES


@<TRIPOS>ATOM
   1 N1            -0.0294     1.4178     0.1426 N.2     
   2 N2            -0.0204     0.0186     0.2612 N.pl3   
   3 C3             1.2219     1.8082     0.1136 C.2     
   4 N4             2.0184     0.7367     0.2071 N.2     
   5 C5             1.2872    -0.3533     0.2971 C.2     
   6 N6             1.7629    -1.6454     0.4082 N.pl3   
   7 C7            -1.1296    -0.8208     0.3294 C.ar    
   8 N8             1.6542     3.1295     0.0031 N.pl3   
   9 C9             3.0181     3.4299     0.0973 C.ar    
  10 C10            3.5363     4.5266    -0.5795 C.ar    
  11 C11            3.8523     2.6352     0.8720 C.ar    
  12 C12            5.1985     2.9321     0.9659 C.ar    
  13 C13            5.7173     4.0234     0.2870 C.ar    
  14 C14            4.8833     4.8225    -0.4853 C.ar    
  15 N15           -2.3427    -0.2897     0.2807 N.ar    
  16 C16           -3.4124    -1.0707     0.3439 C.ar    
  17 C17           -3.2471    -2.4538     0.4415 C.ar    
  18 C18           -1.9671    -2.9655     0.4989 C.ar    
  19 N19           -0.9418    -2.1271     0.4357 N.ar    
  20 O20            7.0428     4.3153     0.3809 O.3     
  21 C21            9.2921     3.9375     1.1799 C.3     
  22 C22            7.8404     3.4547     1.1965 C.3     
  23 F23            5.3894     5.8861    -1.1469 F       
  24 N24            9.3755     5.2603     1.8133 N.3     
  25 C25           10.7795     5.6544     2.0310 C.3     
  26 C26           10.9918     7.0043     1.3140 C.3     
  27 C27            9.5532     7.5758     1.2116 C.3     
  28 C28            8.7216     6.2900     0.9778 C.3     
  29 C29           -4.7864    -0.5203     0.3436 C.ar    
  30 C30           -5.6851    -0.9522     1.3210 C.ar    
  31 C31           -5.2185    -1.9178     2.3755 C.3     
  32 C32           -5.1222    -3.3391     1.8273 C.3     
  33 C33           -4.4547    -3.3459     0.4549 C.3     
  34 C34           -5.1893     0.4082    -0.6098 C.ar    
  35 C35           -6.4859     0.8848    -0.5952 C.ar    
  36 C36           -7.3790     0.4384     0.3619 C.ar    
  37 C37           -6.9796    -0.4793     1.3182 C.ar    
  38 H38            2.7186    -1.8106     0.4250 H       
  39 H39            1.1413    -2.3875     0.4694 H       
  40 H40            1.0097     3.8403    -0.1392 H       
  41 H41            2.8874     5.1474    -1.1794 H       
  42 H42            3.4488     1.7848     1.4017 H       
  43 H43            5.8468     2.3137     1.5690 H       
  44 H44           -1.8033    -4.0291     0.5896 H       
  45 H45            9.9160     3.2320     1.7286 H       
  46 H46            9.6406     4.0055     0.1494 H       
  47 H47            7.4636     3.4714     2.2192 H       
  48 H48            7.7913     2.4375     0.8078 H       
  49 H49           10.9719     5.7670     3.0979 H       
  50 H50           11.4455     4.9017     1.6092 H       
  51 H51           11.6261     7.6613     1.9092 H       
  52 H52           11.4171     6.8512     0.3221 H       
  53 H53            9.2609     8.0664     2.1401 H       
  54 H54            9.4633     8.2581     0.3663 H       
  55 H55            8.7543     6.0028    -0.0732 H       
  56 H56            7.6910     6.4409     1.2989 H       
  57 H57           -4.2374    -1.6069     2.7343 H       
  58 H58           -5.9221    -1.9038     3.2079 H       
  59 H59           -4.5362    -3.9496     2.5143 H       
  60 H60           -6.1244    -3.7589     1.7409 H       
  61 H61           -5.1673    -2.9955    -0.2918 H       
  62 H62           -4.1511    -4.3635     0.2093 H       
  63 H63           -4.4920     0.7553    -1.3579 H       
  64 H64           -6.8026     1.6078    -1.3323 H       
  65 H65           -8.3938     0.8078     0.3631 H       
  66 H66           -7.6823    -0.8245     2.0621 H       
@<TRIPOS>BOND
   1    1    2 1
   2    1    3 2
   3    2    7 1
   4    2    5 1
   5    3    4 1
   6    3    8 1
   7    4    5 2
   8    5    6 1
   9    6   38 1
  10    6   39 1
  11    7   15 ar
  12    7   19 ar
  13    8    9 1
  14    8   40 1
  15    9   10 ar
  16    9   11 ar
  17   10   14 ar
  18   10   41 1
  19   11   12 ar
  20   11   42 1
  21   12   13 ar
  22   12   43 1
  23   13   14 ar
  24   13   20 1
  25   14   23 1
  26   15   16 ar
  27   16   17 ar
  28   16   29 1
  29   17   18 ar
  30   17   33 1
  31   18   19 ar
  32   18   44 1
  33   20   22 1
  34   21   22 1
  35   21   24 1
  36   21   45 1
  37   21   46 1
  38   22   47 1
  39   22   48 1
  40   24   25 1
  41   24   28 1
  42   25   26 1
  43   25   49 1
  44   25   50 1
  45   26   27 1
  46   26   51 1
  47   26   52 1
  48   27   28 1
  49   27   53 1
  50   27   54 1
  51   28   55 1
  52   28   56 1
  53   29   30 ar
  54   29   34 ar
  55   30   31 1
  56   30   37 ar
  57   31   32 1
  58   31   57 1
  59   31   58 1
  60   32   33 1
  61   32   59 1
  62   32   60 1
  63   33   61 1
  64   33   62 1
  65   34   35 ar
  66   34   63 1
  67   35   36 ar
  68   35   64 1
  69   36   37 ar
  70   36   65 1
  71   37   66 1

#	End of record

