#	Name: ASD05380023
#	Creating user name:	WinNT
#	Creation time:	15. 06. 2019 20:59

#	Modifying user name:	WinNT
#	Modification time:	15. 06. 2019 20:59

#	Program:	/corina/corina34_cracker 3.40 0067  02.08.2006

@<TRIPOS>MOLECULE
ASD05380023
  49   53    0    0    0
SMALL
NO_CHARGES


@<TRIPOS>ATOM
   1 C1            -0.2702     1.7436    -0.3084 C.ar    
   2 C2            -0.0036     0.3803    -0.5673 C.ar    
   3 C3             0.6313     2.7218    -0.7220 C.ar    
   4 C4             1.7813     2.3492    -1.3835 C.ar    
   5 C5             2.0463     1.0106    -1.6399 C.ar    
   6 C6             1.1684     0.0282    -1.2392 C.ar    
   7 C7             0.3507     4.1770    -0.4484 C.3     
   8 N8            -0.8955    -0.5547    -0.1548 N.2     
   9 C9            -1.9853    -0.2268     0.4704 C.2     
  10 N10           -2.3224     1.0586     0.7615 N.am    
  11 C11           -1.5098     2.0810     0.4063 C.2     
  12 C12           -3.5190     1.3261     1.4399 C.ar    
  13 C13           -4.6879     1.5515     0.7251 C.ar    
  14 C14           -3.5386     1.3604     2.8278 C.ar    
  15 C15           -4.7190     1.6237     3.4945 C.ar    
  16 C16           -5.8827     1.8534     2.7797 C.ar    
  17 C17           -5.8663     1.8144     1.3955 C.ar    
  18 C18           -2.9247    -1.3262     0.8948 C.3     
  19 N19           -2.9252    -2.3857    -0.1169 N.pl3   
  20 C20           -4.0235    -3.2175    -0.2472 C.ar    
  21 N21           -5.0860    -3.0689     0.5374 N.ar    
  22 O22           -1.7988     3.2359     0.6603 O.2     
  23 C23           -4.0437    -4.2351    -1.2158 C.ar    
  24 C24           -5.1869    -5.0480    -1.3004 C.ar    
  25 N25           -6.1993    -4.8272    -0.4684 N.ar    
  26 C26           -6.1383    -3.8579     0.4202 C.ar    
  27 N27           -3.1763    -4.6665    -2.1628 N.2     
  28 C28           -3.7013    -5.6678    -2.8073 C.2     
  29 N29           -4.9416    -5.9414    -2.3123 N.pl3   
  30 C30           -2.4639    -1.9015     2.2355 C.3     
  31 F31           -7.0364     2.1108     3.4337 F       
  32 H32            2.4824     3.1050    -1.7055 H       
  33 H33            2.9521     0.7364    -2.1602 H       
  34 H34            1.3853    -1.0097    -1.4443 H       
  35 H35            0.6705     4.4246     0.5638 H       
  36 H36            0.8969     4.7929    -1.1629 H       
  37 H37           -0.7181     4.3659    -0.5483 H       
  38 H38           -4.6755     1.5215    -0.3544 H       
  39 H39           -2.6314     1.1809     3.3856 H       
  40 H40           -4.7347     1.6501     4.5741 H       
  41 H41           -6.7748     1.9938     0.8398 H       
  42 H42           -3.9320    -0.9231     0.9993 H       
  43 H43           -2.1557    -2.5042    -0.6955 H       
  44 H44           -6.9803    -3.7024     1.0785 H       
  45 H45           -3.2246    -6.2030    -3.6153 H       
  46 H46           -5.5405    -6.6402    -2.6188 H       
  47 H47           -1.4447    -2.2759     2.1392 H       
  48 H48           -2.4938    -1.1207     2.9955 H       
  49 H49           -3.1248    -2.7178     2.5271 H       
@<TRIPOS>BOND
   1    1    2 ar
   2    1    3 ar
   3    1   11 1
   4    2    8 1
   5    2    6 ar
   6    3    4 ar
   7    3    7 1
   8    4    5 ar
   9    4   32 1
  10    5    6 ar
  11    5   33 1
  12    6   34 1
  13    7   35 1
  14    7   36 1
  15    7   37 1
  16    8    9 2
  17    9   10 1
  18    9   18 1
  19   10   11 am
  20   10   12 1
  21   11   22 2
  22   12   13 ar
  23   12   14 ar
  24   13   17 ar
  25   13   38 1
  26   14   15 ar
  27   14   39 1
  28   15   16 ar
  29   15   40 1
  30   16   17 ar
  31   16   31 1
  32   17   41 1
  33   18   19 1
  34   18   30 1
  35   18   42 1
  36   19   20 1
  37   19   43 1
  38   20   21 ar
  39   20   23 ar
  40   21   26 ar
  41   23   24 ar
  42   23   27 1
  43   24   25 ar
  44   24   29 1
  45   25   26 ar
  46   26   44 1
  47   27   28 2
  48   28   29 1
  49   28   45 1
  50   29   46 1
  51   30   47 1
  52   30   48 1
  53   30   49 1

#	End of record

