#	Name: ASD01883724
#	Creating user name:	WinNT
#	Creation time:	15. 06. 2019 19:46

#	Modifying user name:	WinNT
#	Modification time:	15. 06. 2019 19:46

#	Program:	/corina/corina34_cracker 3.40 0067  02.08.2006

@<TRIPOS>MOLECULE
ASD01883724
  45   49    0    0    0
SMALL
NO_CHARGES


@<TRIPOS>ATOM
   1 C1            -0.8213    -0.0410     1.1341 C.2     
   2 C2             0.0021    -0.0041     0.0020 C.2     
   3 C3            -0.4100     0.7404    -1.1189 C.2     
   4 C4            -1.5766     1.4123    -1.1155 C.2     
   5 N5            -2.4098     1.4050    -0.0353 N.pl3   
   6 C6            -2.0854     0.6991     1.0942 C.2     
   7 C7            -3.6245     1.9995     0.2032 C.2     
   8 C8            -3.9990     1.6518     1.4509 C.2     
   9 N9            -3.0544     0.8623     1.9762 N.2     
  10 C10           -4.3943     2.8763    -0.7505 C.3     
  11 C11           -4.0759     4.3450    -0.4631 C.3     
  12 N12            1.2030    -0.6889    -0.0141 N.pl3   
  13 F13           -2.7046     4.5661    -0.6298 F       
  14 F14           -4.7906     5.1590    -1.3485 F       
  15 F15           -4.4414     4.6527     0.8518 F       
  16 C16            1.2364    -2.1557     0.0878 C.3     
  17 C17            1.8026    -2.7323    -1.2154 C.3     
  18 C18            3.0214    -1.9397    -1.6134 C.2     
  19 C19            3.3302    -0.7125    -1.1412 C.2     
  20 C20            2.4818     0.0312    -0.1398 C.3     
  21 C21            4.0682    -2.3101    -2.5444 C.ar    
  22 C22            4.9771    -1.2212    -2.5662 C.ar    
  23 N23            4.4978    -0.2747    -1.7071 N.pl3   
  24 C24            4.2809    -3.4490    -3.3272 C.ar    
  25 C25            5.4067    -3.4604    -4.1131 C.ar    
  26 C26            6.2977    -2.3999    -4.1380 C.ar    
  27 C27            6.1118    -1.2609    -3.3740 C.ar    
  28 C28           -0.4414    -0.7862     2.2963 C.1     
  29 N29           -0.1400    -1.3774     3.2183 N.1     
  30 H30            0.2198     0.7736    -1.9956 H       
  31 H31           -1.8610     1.9736    -1.9932 H       
  32 H32           -4.9107     1.9568     1.9432 H       
  33 H33           -4.1096     2.6365    -1.7749 H       
  34 H34           -5.4628     2.7041    -0.6206 H       
  35 H35            1.8721    -2.4491     0.9232 H       
  36 H36            0.2263    -2.5337     0.2455 H       
  37 H37            2.0797    -3.7754    -1.0628 H       
  38 H38            1.0506    -2.6644    -2.0015 H       
  39 H39            2.3044     1.0487    -0.4881 H       
  40 H40            2.9838     0.0525     0.8275 H       
  41 H41            4.9204     0.5792    -1.5252 H       
  42 H42            3.5917    -4.2805    -3.3145 H       
  43 H43            5.6041    -4.3238    -4.7312 H       
  44 H44            7.1671    -2.4641    -4.7756 H       
  45 H45            6.8138    -0.4407    -3.4026 H       
@<TRIPOS>BOND
   1    1    2 2
   2    1   28 1
   3    1    6 1
   4    2    3 1
   5    2   12 1
   6    3    4 2
   7    3   30 1
   8    4    5 1
   9    4   31 1
  10    5    6 1
  11    5    7 1
  12    6    9 2
  13    7    8 2
  14    7   10 1
  15    8    9 1
  16    8   32 1
  17   10   11 1
  18   10   33 1
  19   10   34 1
  20   11   13 1
  21   11   14 1
  22   11   15 1
  23   12   16 1
  24   12   20 1
  25   16   17 1
  26   16   35 1
  27   16   36 1
  28   17   18 1
  29   17   37 1
  30   17   38 1
  31   18   19 2
  32   18   21 1
  33   19   20 1
  34   19   23 1
  35   20   39 1
  36   20   40 1
  37   21   22 ar
  38   21   24 ar
  39   22   23 1
  40   22   27 ar
  41   23   41 1
  42   24   25 ar
  43   24   42 1
  44   25   26 ar
  45   25   43 1
  46   26   27 ar
  47   26   44 1
  48   27   45 1
  49   28   29 3

#	End of record

