#	Name: ASD03330193
#	Creating user name:	WinNT
#	Creation time:	15. 06. 2019 20:36

#	Modifying user name:	WinNT
#	Modification time:	15. 06. 2019 20:36

#	Program:	/corina/corina34_cracker 3.40 0067  02.08.2006

@<TRIPOS>MOLECULE
ASD03330193
  49   52    0    0    0
SMALL
NO_CHARGES


@<TRIPOS>ATOM
   1 C1            -0.5984     0.6165    -2.9897 C.ar    
   2 C2            -1.9093     0.8591    -3.3642 C.ar    
   3 C3            -2.9498     0.3523    -2.6082 C.ar    
   4 C4            -2.6791    -0.3999    -1.4733 C.ar    
   5 C5            -1.3632    -0.6414    -1.1004 C.ar    
   6 C6            -0.3270    -0.1379    -1.8619 C.ar    
   7 N7            -3.7309    -0.9140    -0.7056 N.am    
   8 C8            -4.8853    -0.2268    -0.5982 C.2     
   9 N9            -5.9345    -0.7692     0.0509 N.am    
  10 O10           -4.9802     0.8826    -1.0870 O.2     
  11 C11           -7.0957    -0.0155     0.2566 C.ar    
  12 C12           -8.3346    -0.6377     0.2602 C.ar    
  13 C13           -9.4874     0.1164     0.4658 C.ar    
  14 C14           -9.3890     1.4921     0.6669 C.ar    
  15 C15           -8.1513     2.1041     0.6619 C.ar    
  16 C16           -7.0067     1.3558     0.4632 C.ar    
  17 C17          -10.8163    -0.5427     0.4703 C.ar    
  18 N18          -10.9007    -1.8537     0.2775 N.ar    
  19 C19          -11.9619     0.2179     0.6823 C.ar    
  20 C20          -13.1993    -0.4078     0.6851 C.ar    
  21 C21          -13.2508    -1.7749     0.4757 C.ar    
  22 C22          -12.0666    -2.4785     0.2749 C.ar    
  23 N23          -12.1101    -3.8517     0.0639 N.3     
  24 C24          -10.7547    -4.4003    -0.1259 C.3     
  25 C25          -10.5535    -5.4998     0.9380 C.3     
  26 C26          -12.0064    -5.9034     1.3027 C.3     
  27 C27          -12.7422    -4.5436     1.2073 C.3     
  28 Cl28          -2.2462     1.8004    -4.7833 Cl      
  29 Cl29           0.7066     1.2540    -3.9407 Cl      
  30 H30           -3.9723     0.5417    -2.9000 H       
  31 H31           -1.1505    -1.2261    -0.2176 H       
  32 H32            0.6963    -0.3260    -1.5721 H       
  33 H33           -3.6288    -1.7647    -0.2510 H       
  34 H34           -5.8849    -1.6819     0.3754 H       
  35 H35           -8.4057    -1.7039     0.1035 H       
  36 H36          -10.2811     2.0796     0.8263 H       
  37 H37           -8.0772     3.1702     0.8179 H       
  38 H38           -6.0409     1.8393     0.4606 H       
  39 H39          -11.8882     1.2833     0.8431 H       
  40 H40          -14.1037     0.1597     0.8477 H       
  41 H41          -14.1995    -2.2910     0.4722 H       
  42 H42          -10.6647    -4.8291    -1.1240 H       
  43 H43          -10.0135    -3.6127     0.0099 H       
  44 H44          -10.0118    -6.3475     0.5184 H       
  45 H45          -10.0337    -5.1022     1.8096 H       
  46 H46          -12.4067    -6.6154     0.5809 H       
  47 H47          -12.0577    -6.3051     2.3147 H       
  48 H48          -12.6002    -3.9703     2.1234 H       
  49 H49          -13.8040    -4.6993     1.0168 H       
@<TRIPOS>BOND
   1    1    2 ar
   2    1   29 1
   3    1    6 ar
   4    2    3 ar
   5    2   28 1
   6    3    4 ar
   7    3   30 1
   8    4    5 ar
   9    4    7 1
  10    5    6 ar
  11    5   31 1
  12    6   32 1
  13    7    8 am
  14    7   33 1
  15    8    9 am
  16    8   10 2
  17    9   11 1
  18    9   34 1
  19   11   12 ar
  20   11   16 ar
  21   12   13 ar
  22   12   35 1
  23   13   14 ar
  24   13   17 1
  25   14   15 ar
  26   14   36 1
  27   15   16 ar
  28   15   37 1
  29   16   38 1
  30   17   18 ar
  31   17   19 ar
  32   18   22 ar
  33   19   20 ar
  34   19   39 1
  35   20   21 ar
  36   20   40 1
  37   21   22 ar
  38   21   41 1
  39   22   23 1
  40   23   24 1
  41   23   27 1
  42   24   25 1
  43   24   42 1
  44   24   43 1
  45   25   26 1
  46   25   44 1
  47   25   45 1
  48   26   27 1
  49   26   46 1
  50   26   47 1
  51   27   48 1
  52   27   49 1

#	End of record

