#	Name: ASD09720010
#	Creating user name:	WinNT
#	Creation time:	15. 06. 2019 21:22

#	Modifying user name:	WinNT
#	Modification time:	15. 06. 2019 21:22

#	Program:	/corina/corina34_cracker 3.40 0067  02.08.2006

@<TRIPOS>MOLECULE
ASD09720010
  36   37    0    0    0
SMALL
NO_CHARGES


@<TRIPOS>ATOM
   1 C1            -0.2511     0.3312     0.8694 C.2     
   2 S2             0.1834     1.1168    -0.6387 S.3     
   3 C3            -1.4300     1.5667    -0.9541 C.2     
   4 C4            -2.2543     1.1398     0.0386 C.2     
   5 C5            -1.5601     0.4231     1.0830 C.2     
   6 Cl6            0.8709    -0.4619     1.9305 Cl      
   7 Cl7           -1.9502     2.4514    -2.3542 Cl      
   8 C8            -3.7074     1.3798     0.0464 C.2     
   9 N9            -4.5290     0.3828    -0.0486 N.2     
  10 C10           -4.2383     2.7851     0.1650 C.3     
  11 O11           -4.0331    -0.9244    -0.2734 O.3     
  12 S12           -6.0519     2.7500     0.1455 S.3     
  13 C13           -6.4956     4.5024     0.2954 C.3     
  14 C14           -8.0190     4.6447     0.2940 C.3     
  15 C15           -8.3933     6.1228     0.4204 C.3     
  16 C16           -9.8938     6.2630     0.4191 C.ar    
  17 C17          -10.5928     6.2225     1.6110 C.ar    
  18 C18          -11.9692     6.3510     1.6098 C.ar    
  19 C19          -12.6464     6.5204     0.4167 C.ar    
  20 C20          -11.9473     6.5618    -0.7751 C.ar    
  21 C21          -10.5706     6.4376    -0.7735 C.ar    
  22 H22           -2.0525     0.0106     1.9512 H       
  23 H23           -3.8936     3.2260     1.1003 H       
  24 H24           -3.8774     3.3818    -0.6727 H       
  25 H25           -4.7210    -1.6017    -0.3297 H       
  26 H26           -6.0944     4.9004     1.2274 H       
  27 H27           -6.0783     5.0561    -0.5457 H       
  28 H28           -8.4203     4.2467    -0.6381 H       
  29 H29           -8.4364     4.0910     1.1350 H       
  30 H30           -7.9920     6.5208     1.3525 H       
  31 H31           -7.9759     6.6765    -0.4206 H       
  32 H32          -10.0636     6.0901     2.5431 H       
  33 H33          -12.5154     6.3187     2.5409 H       
  34 H34          -13.7218     6.6201     0.4156 H       
  35 H35          -12.4765     6.6938    -1.7073 H       
  36 H36          -10.0244     6.4700    -1.7047 H       
@<TRIPOS>BOND
   1    1    2 1
   2    1    6 1
   3    1    5 2
   4    2    3 1
   5    3    4 2
   6    3    7 1
   7    4    5 1
   8    4    8 1
   9    5   22 1
  10    8    9 2
  11    8   10 1
  12    9   11 1
  13   10   12 1
  14   10   23 1
  15   10   24 1
  16   11   25 1
  17   12   13 1
  18   13   14 1
  19   13   26 1
  20   13   27 1
  21   14   15 1
  22   14   28 1
  23   14   29 1
  24   15   16 1
  25   15   30 1
  26   15   31 1
  27   16   17 ar
  28   16   21 ar
  29   17   18 ar
  30   17   32 1
  31   18   19 ar
  32   18   33 1
  33   19   20 ar
  34   19   34 1
  35   20   21 ar
  36   20   35 1
  37   21   36 1

#	End of record

