#	Name: ASD01881743
#	Creating user name:	WinNT
#	Creation time:	15. 06. 2019 19:43

#	Modifying user name:	WinNT
#	Modification time:	15. 06. 2019 19:43

#	Program:	/corina/corina34_cracker 3.40 0067  02.08.2006

@<TRIPOS>MOLECULE
ASD01881743
  39   41    0    0    0
SMALL
NO_CHARGES


@<TRIPOS>ATOM
   1 C1            -0.0184     1.5028     0.0103 C.3     
   2 C2             0.0021    -0.0041     0.0020 C.2     
   3 C3             1.3172    -0.7397    -0.0145 C.3     
   4 C4             1.0581    -2.2476    -0.0201 C.3     
   5 C5             2.3933    -2.9945    -0.0369 C.3     
   6 O6            -1.0354    -0.6220     0.0086 O.2     
   7 O7             2.1513    -4.4028    -0.0421 O.3     
   8 N8             6.3687    -7.8977    -0.1017 N.pl3   
   9 N9             5.5981    -9.0698    -0.1000 N.2     
  10 N10            4.3494    -8.7612    -0.0858 N.2     
  11 C11            4.1978    -7.4218    -0.0775 C.ar    
  12 C12            5.4804    -6.8465    -0.0874 C.ar    
  13 C13            3.0729    -6.5857    -0.0626 C.ar    
  14 C14            3.2408    -5.2165    -0.0569 C.ar    
  15 C15            4.5181    -4.6613    -0.0666 C.ar    
  16 C16            5.6240    -5.4637    -0.0824 C.ar    
  17 C17            7.8310    -7.8098    -0.1105 C.3     
  18 C18            8.3311    -7.7748    -1.5560 C.3     
  19 C19            9.8301    -7.5655    -1.7801 C.3     
  20 C20            9.2037    -8.9388    -2.0300 C.3     
  21 Br21           1.3348    -7.3306    -0.0497 Br      
  22 H22            1.0042     1.8801     0.0026 H       
  23 H23           -0.5455     1.8639    -0.8728 H       
  24 H24           -0.5286     1.8543     0.9071 H       
  25 H25            1.8766    -0.4639    -0.9084 H       
  26 H26            1.8936    -0.4734     0.8715 H       
  27 H27            0.4987    -2.5235     0.8738 H       
  28 H28            0.4817    -2.5139    -0.9061 H       
  29 H29            2.9527    -2.7186    -0.9308 H       
  30 H30            2.9697    -2.7282     0.8491 H       
  31 H31            4.6355    -3.5877    -0.0623 H       
  32 H32            6.6102    -5.0235    -0.0901 H       
  33 H33            8.1435    -6.9012     0.4042 H       
  34 H34            8.2502    -8.6779     0.3981 H       
  35 H35            7.6473    -7.3309    -2.2795 H       
  36 H36           10.1324    -6.9842    -2.6511 H       
  37 H37           10.4599    -7.4527    -0.8977 H       
  38 H38            9.4214    -9.7295    -1.3120 H       
  39 H39            9.0939    -9.2610    -3.0655 H       
@<TRIPOS>BOND
   1    1    2 1
   2    1   22 1
   3    1   23 1
   4    1   24 1
   5    2    3 1
   6    2    6 2
   7    3    4 1
   8    3   25 1
   9    3   26 1
  10    4    5 1
  11    4   27 1
  12    4   28 1
  13    5    7 1
  14    5   29 1
  15    5   30 1
  16    7   14 1
  17    8    9 1
  18    8   12 1
  19    8   17 1
  20    9   10 2
  21   10   11 1
  22   11   12 ar
  23   11   13 ar
  24   12   16 ar
  25   13   14 ar
  26   13   21 1
  27   14   15 ar
  28   15   16 ar
  29   15   31 1
  30   16   32 1
  31   17   18 1
  32   17   33 1
  33   17   34 1
  34   18   19 1
  35   18   20 1
  36   18   35 1
  37   19   20 1
  38   19   36 1
  39   19   37 1
  40   20   38 1
  41   20   39 1

#	End of record

