#	Name: ASD02039475
#	Creating user name:	WinNT
#	Creation time:	15. 06. 2019 20:18

#	Modifying user name:	WinNT
#	Modification time:	15. 06. 2019 20:18

#	Program:	/corina/corina34_cracker 3.40 0067  02.08.2006

@<TRIPOS>MOLECULE
ASD02039475
  49   51    0    0    0
SMALL
NO_CHARGES


@<TRIPOS>ATOM
   1 C1             0.1147     1.1857     0.1185 C.ar    
   2 C2             0.3020    -0.1846     0.1512 C.ar    
   3 C3             1.3072     2.1069     0.1050 C.3     
   4 N4             1.7843     2.2680    -1.2708 N.am    
   5 C5             1.3883     3.3290    -2.0015 C.2     
   6 C6             0.3883     4.2651    -1.4590 C.2     
   7 C7            -0.1781     5.3138    -2.1226 C.2     
   8 N8            -0.1416     4.2378    -0.2094 N.2     
   9 C9            -0.9904     5.2175    -0.0906 C.2     
  10 N10           -1.0375     5.9063    -1.2606 N.pl3   
  11 O11            1.8564     3.5137    -3.1087 O.2     
  12 C12           -1.8686     7.0801    -1.5392 C.3     
  13 C13            2.6919     1.2758    -1.8523 C.3     
  14 C14           -0.7866    -1.0371     0.1633 C.ar    
  15 C15           -2.2637     0.8589     0.0992 C.ar    
  16 C16           -1.1611     1.7112     0.0925 C.ar    
  17 C17           -3.6365     1.4176     0.0708 C.ar    
  18 N18           -4.6727     0.5900     0.0777 N.ar    
  19 C19           -5.9097     1.0557     0.0535 C.ar    
  20 C20           -6.1159     2.4266     0.0206 C.ar    
  21 C21           -5.0100     3.2639     0.0142 C.ar    
  22 N22           -3.7996     2.7337     0.0447 N.ar    
  23 C23            2.0755     0.7097    -3.1331 C.3     
  24 C24            4.0305     1.9398    -2.1808 C.3     
  25 C25           -2.0700    -0.5232     0.1428 C.ar    
  26 F26           -3.1336    -1.3562     0.1542 F       
  27 C27           -7.0815     0.1082     0.0610 C.3     
  28 F28           -6.6194    -1.2038     0.2101 F       
  29 F29           -7.9320     0.4268     1.1252 F       
  30 F30           -7.7810     0.2221    -1.1452 F       
  31 H31            1.3028    -0.5903     0.1669 H       
  32 H32            1.0201     3.0789     0.5061 H       
  33 H33            2.1020     1.6814     0.7177 H       
  34 H34            0.0212     5.6141    -3.1407 H       
  35 H35           -1.5665     5.4444     0.7943 H       
  36 H36           -1.3195     7.9845    -1.2773 H       
  37 H37           -2.1216     7.1028    -2.5992 H       
  38 H38           -2.7831     7.0263    -0.9485 H       
  39 H39            2.8525     0.4679    -1.1384 H       
  40 H40           -0.6341    -2.1060     0.1885 H       
  41 H41           -1.3047     2.7811     0.0592 H       
  42 H42           -7.1161     2.8336    -0.0001 H       
  43 H43           -5.1365     4.3361    -0.0111 H       
  44 H44            1.8418     1.5266    -3.8157 H       
  45 H45            2.7838     0.0308    -3.6079 H       
  46 H46            1.1617     0.1682    -2.8880 H       
  47 H47            4.5097     2.2674    -1.2582 H       
  48 H48            4.6755     1.2244    -2.6910 H       
  49 H49            3.8601     2.8008    -2.8272 H       
@<TRIPOS>BOND
   1    1    2 ar
   2    1    3 1
   3    1   16 ar
   4    2   14 ar
   5    2   31 1
   6    3    4 1
   7    3   32 1
   8    3   33 1
   9    4    5 am
  10    4   13 1
  11    5    6 1
  12    5   11 2
  13    6    7 2
  14    6    8 1
  15    7   10 1
  16    7   34 1
  17    8    9 2
  18    9   10 1
  19    9   35 1
  20   10   12 1
  21   12   36 1
  22   12   37 1
  23   12   38 1
  24   13   23 1
  25   13   24 1
  26   13   39 1
  27   14   25 ar
  28   14   40 1
  29   15   16 ar
  30   15   17 1
  31   15   25 ar
  32   16   41 1
  33   17   18 ar
  34   17   22 ar
  35   18   19 ar
  36   19   20 ar
  37   19   27 1
  38   20   21 ar
  39   20   42 1
  40   21   22 ar
  41   21   43 1
  42   23   44 1
  43   23   45 1
  44   23   46 1
  45   24   47 1
  46   24   48 1
  47   24   49 1
  48   25   26 1
  49   27   28 1
  50   27   29 1
  51   27   30 1

#	End of record

