#	Name: ASD01890568
#	Creating user name:	WinNT
#	Creation time:	15. 06. 2019 19:51

#	Modifying user name:	WinNT
#	Modification time:	15. 06. 2019 19:51

#	Program:	/corina/corina34_cracker 3.40 0067  02.08.2006

@<TRIPOS>MOLECULE
ASD01890568
  40   42    0    0    0
SMALL
NO_CHARGES


@<TRIPOS>ATOM
   1 C1            -0.8410    -0.1104    -1.0019 C.2     
   2 C2            -0.0666     0.1226     0.2697 C.3     
   3 C3             1.2761    -0.6066     0.1901 C.3     
   4 C4             2.1222    -0.2523     1.4146 C.3     
   5 O5            -0.3292    -0.7056    -1.9205 O.2     
   6 O6            -2.1012     0.3385    -1.1121 O.3     
   7 C7             2.4759     1.2120     1.3742 C.2     
   8 N8             3.0800     1.8059     0.3866 N.2     
   9 C9             3.2432     3.1223     0.6767 C.ar    
  10 C10            2.6875     3.3331     1.9500 C.ar    
  11 N11            2.2050     2.1066     2.3625 N.pl3   
  12 C12            3.8145     4.1962    -0.0107 C.ar    
  13 C13            3.8274     5.4469     0.5647 C.ar    
  14 C14            3.2771     5.6496     1.8227 C.ar    
  15 C15            2.7089     4.6009     2.5140 C.ar    
  16 I16            4.6849     7.0565    -0.4663 I       
  17 C17            1.0385    -2.0943     0.1570 C.ar    
  18 C18            1.5820    -2.8585    -0.8591 C.ar    
  19 C19            1.3642    -4.2228    -0.8902 C.ar    
  20 C20            0.6023    -4.8241     0.0960 C.ar    
  21 C21            0.0591    -4.0592     1.1125 C.ar    
  22 C22            0.2821    -2.6953     1.1455 C.ar    
  23 C23            2.4118    -2.2034    -1.9331 C.3     
  24 Cl24           0.3277    -6.5379     0.0572 Cl      
  25 H25            0.1072     1.1909     0.3987 H       
  26 H26           -0.6369    -0.2576     1.1172 H       
  27 H27            1.8016    -0.3023    -0.7151 H       
  28 H28            1.5558    -0.4644     2.3214 H       
  29 H29            3.0357    -0.8470     1.4094 H       
  30 H30           -2.5576     0.1652    -1.9469 H       
  31 H31            1.7580     1.9175     3.2024 H       
  32 H32            4.2449     4.0456    -0.9898 H       
  33 H33            3.2940     6.6357     2.2629 H       
  34 H34            2.2824     4.7654     3.4925 H       
  35 H35            1.7882    -4.8194    -1.6843 H       
  36 H36           -0.5359    -4.5279     1.8823 H       
  37 H37           -0.1382    -2.0986     1.9415 H       
  38 H38            3.4390    -2.0971    -1.5845 H       
  39 H39            2.3950    -2.8198    -2.8319 H       
  40 H40            2.0014    -1.2194    -2.1597 H       
@<TRIPOS>BOND
   1    1    2 1
   2    1    5 2
   3    1    6 1
   4    2    3 1
   5    2   25 1
   6    2   26 1
   7    3    4 1
   8    3   17 1
   9    3   27 1
  10    4    7 1
  11    4   28 1
  12    4   29 1
  13    6   30 1
  14    7    8 2
  15    7   11 1
  16    8    9 1
  17    9   10 ar
  18    9   12 ar
  19   10   11 1
  20   10   15 ar
  21   11   31 1
  22   12   13 ar
  23   12   32 1
  24   13   14 ar
  25   13   16 1
  26   14   15 ar
  27   14   33 1
  28   15   34 1
  29   17   18 ar
  30   17   22 ar
  31   18   19 ar
  32   18   23 1
  33   19   20 ar
  34   19   35 1
  35   20   21 ar
  36   20   24 1
  37   21   22 ar
  38   21   36 1
  39   22   37 1
  40   23   38 1
  41   23   39 1
  42   23   40 1

#	End of record

