#	Name: ASD06170383
#	Creating user name:	WinNT
#	Creation time:	15. 06. 2019 21:05

#	Modifying user name:	WinNT
#	Modification time:	15. 06. 2019 21:05

#	Program:	/corina/corina34_cracker 3.40 0067  02.08.2006

@<TRIPOS>MOLECULE
ASD06170383
  85   90    0    0    0
SMALL
NO_CHARGES


@<TRIPOS>ATOM
   1 N1            -0.5203     2.6042    -0.3069 N.am    
   2 N2            -1.5767     1.9460    -0.9436 N.pl3   
   3 C3            -1.1022     0.9254    -1.6830 C.2     
   4 C4             0.2720     0.8892    -1.5499 C.2     
   5 C5             0.6338     1.9936    -0.6472 C.2     
   6 C6             1.1910    -0.0637    -2.1839 C.2     
   7 O7             0.7560    -0.9353    -2.9133 O.2     
   8 N8             2.5167     0.0265    -1.9581 N.am    
   9 C9             3.3817    -0.9501    -2.4672 C.ar    
  10 C10            4.6780    -0.6090    -2.8285 C.ar    
  11 C11            5.0950    -2.8801    -3.4740 C.ar    
  12 C12            3.7994    -3.2244    -3.1074 C.ar    
  13 C13            2.9447    -2.2612    -2.6052 C.ar    
  14 O14            5.9361    -3.8275    -3.9685 O.3     
  15 N15            5.7250    -4.6670    -7.9791 N.ar    
  16 C16            6.6929    -5.2696    -7.2552 C.ar    
  17 C17            6.7845    -4.9987    -5.8875 C.ar    
  18 C18            5.8705    -4.1082    -5.2948 C.ar    
  19 C19            4.9020    -3.5248    -6.0948 C.ar    
  20 C20            4.8664    -3.8359    -7.4463 C.ar    
  21 O21            1.7536     2.2968    -0.2800 O.2     
  22 C22           -0.6392     3.7135     0.5366 C.ar    
  23 C23           -1.5473     3.6946     1.5874 C.ar    
  24 C24           -1.6623     4.7916     2.4185 C.ar    
  25 C25            5.5318    -1.5721    -3.3308 C.ar    
  26 C26           -1.9312    -0.0185    -2.5155 C.3     
  27 C27           -2.9902     2.3118    -0.8235 C.3     
  28 C28           -0.8749     5.9082     2.2050 C.ar    
  29 C29            0.0301     5.9303     1.1598 C.ar    
  30 C30            0.1544     4.8341     0.3288 C.ar    
  31 C31           -3.3740     3.2477    -1.9714 C.3     
  32 C32           -4.8134     3.7288    -1.7776 C.3     
  33 F33            3.3756    -4.5002    -3.2417 F       
  34 S34            8.1201    -5.9065    -5.1905 S.3     
  35 C35            8.5119    -6.6173    -6.7467 C.2     
  36 C36            7.6734    -6.1752    -7.6906 C.2     
  37 C37            9.6106    -7.5679    -6.9807 C.2     
  38 O38            9.8824    -7.9163    -8.1139 O.2     
  39 N39           10.3158    -8.0524    -5.9394 N.am    
  40 C40           -2.4310     4.4525    -1.9842 C.3     
  41 O41           -3.2689     2.5473    -3.2125 O.3     
  42 C42           10.0567    -7.8201    -4.5062 C.3     
  43 C43           10.6506    -9.0163    -3.7393 C.3     
  44 C44           11.2863    -9.9140    -4.8259 C.3     
  45 C45           11.5057    -8.9324    -6.0000 C.3     
  46 N46           12.5655   -10.4667    -4.3611 N.3     
  47 C47           12.3937   -11.2056    -3.1031 C.3     
  48 C48           13.1772   -11.3165    -5.3914 C.3     
  49 H49            2.8716     0.7678    -1.4430 H       
  50 H50            5.0191     0.4097    -2.7173 H       
  51 H51            1.9378    -2.5280    -2.3201 H       
  52 H52            4.1845    -2.8369    -5.6723 H       
  53 H53            4.1128    -3.3820    -8.0727 H       
  54 H54           -2.1630     2.8231     1.7542 H       
  55 H55           -2.3682     4.7776     3.2357 H       
  56 H56            6.5398    -1.3058    -3.6123 H       
  57 H57           -2.0364     0.3828    -3.5235 H       
  58 H58           -1.4397    -0.9903    -2.5608 H       
  59 H59           -2.9171    -0.1305    -2.0644 H       
  60 H60           -3.6034     1.4118    -0.8679 H       
  61 H61           -3.1551     2.8173     0.1280 H       
  62 H62           -0.9673     6.7651     2.8559 H       
  63 H63            0.6433     6.8040     0.9955 H       
  64 H64            0.8615     4.8520    -0.4874 H       
  65 H65           -4.8936     4.2631    -0.8309 H       
  66 H66           -5.0869     4.3956    -2.5953 H       
  67 H67           -5.4853     2.8705    -1.7684 H       
  68 H68            7.7462    -6.4936    -8.7200 H       
  69 H69           -1.4055     4.1098    -2.1223 H       
  70 H70           -2.7045     5.1193    -2.8020 H       
  71 H71           -2.5112     4.9868    -1.0375 H       
  72 H72           -3.8405     1.7698    -3.2750 H       
  73 H73           10.5402    -6.8971    -4.1863 H       
  74 H74            8.9830    -7.7609    -4.3278 H       
  75 H75           11.4113    -8.6758    -3.0368 H       
  76 H76            9.8638    -9.5575    -3.2138 H       
  77 H77           10.6026   -10.7117    -5.1162 H       
  78 H78           11.5423    -9.4689    -6.9481 H       
  79 H79           12.4156    -8.3511    -5.8504 H       
  80 H80           11.6933   -12.0266    -3.2567 H       
  81 H81           13.3559   -11.6041    -2.7815 H       
  82 H82           12.0043   -10.5343    -2.3377 H       
  83 H83           13.4392   -10.7073    -6.2564 H       
  84 H84           14.0767   -11.7836    -4.9902 H       
  85 H85           12.4698   -12.0893    -5.6921 H       
@<TRIPOS>BOND
   1    1    2 1
   2    1    5 am
   3    1   22 1
   4    2    3 1
   5    2   27 1
   6    3    4 2
   7    3   26 1
   8    4    5 1
   9    4    6 1
  10    5   21 2
  11    6    7 2
  12    6    8 am
  13    8    9 1
  14    8   49 1
  15    9   10 ar
  16    9   13 ar
  17   10   25 ar
  18   10   50 1
  19   11   12 ar
  20   11   14 1
  21   11   25 ar
  22   12   13 ar
  23   12   33 1
  24   13   51 1
  25   14   18 1
  26   15   16 ar
  27   15   20 ar
  28   16   17 ar
  29   16   36 1
  30   17   18 ar
  31   17   34 1
  32   18   19 ar
  33   19   20 ar
  34   19   52 1
  35   20   53 1
  36   22   23 ar
  37   22   30 ar
  38   23   24 ar
  39   23   54 1
  40   24   28 ar
  41   24   55 1
  42   25   56 1
  43   26   57 1
  44   26   58 1
  45   26   59 1
  46   27   31 1
  47   27   60 1
  48   27   61 1
  49   28   29 ar
  50   28   62 1
  51   29   30 ar
  52   29   63 1
  53   30   64 1
  54   31   32 1
  55   31   40 1
  56   31   41 1
  57   32   65 1
  58   32   66 1
  59   32   67 1
  60   34   35 1
  61   35   36 2
  62   35   37 1
  63   36   68 1
  64   37   38 2
  65   37   39 am
  66   39   42 1
  67   39   45 1
  68   40   69 1
  69   40   70 1
  70   40   71 1
  71   41   72 1
  72   42   43 1
  73   42   73 1
  74   42   74 1
  75   43   44 1
  76   43   75 1
  77   43   76 1
  78   44   45 1
  79   44   46 1
  80   44   77 1
  81   45   78 1
  82   45   79 1
  83   46   47 1
  84   46   48 1
  85   47   80 1
  86   47   81 1
  87   47   82 1
  88   48   83 1
  89   48   84 1
  90   48   85 1

#	End of record

