#	Name: ASD06020173
#	Creating user name:	WinNT
#	Creation time:	15. 06. 2019 21:04

#	Modifying user name:	WinNT
#	Modification time:	15. 06. 2019 21:04

#	Program:	/corina/corina34_cracker 3.40 0067  02.08.2006

@<TRIPOS>MOLECULE
ASD06020173
  25   27    0    0    0
SMALL
NO_CHARGES


@<TRIPOS>ATOM
   1 N1            -0.0369     1.3715    -0.3043 N.pl3   
   2 C2            -0.0080    -0.0123    -0.1551 C.ar    
   3 C3             1.2188    -0.6914    -0.1190 C.ar    
   4 C4             1.2343    -2.0809     0.0311 C.ar    
   5 C5             0.0440    -2.7744     0.1427 C.ar    
   6 C6            -1.1633    -2.0992     0.1060 C.ar    
   7 C7            -1.1925    -0.7253    -0.0358 C.ar    
   8 C8             6.0022     1.4825    -1.0718 C.ar    
   9 C9             4.7369     1.0086    -0.7429 C.ar    
  10 C10            3.9649     1.6957     0.2046 C.ar    
  11 C11            4.5366     2.8571     0.7805 C.ar    
  12 C12            5.7850     3.2478     0.3970 C.ar    
  13 N13            6.4791     2.5689    -0.5012 N.ar    
  14 S14            3.8157    -0.3828    -1.3029 S.3     
  15 C15            2.4854     0.0565    -0.2393 C.2     
  16 N16            2.7764     1.1296     0.4220 N.2     
  17 F17            3.8511     3.5706     1.7003 F       
  18 F18            2.4104    -2.7448     0.0667 F       
  19 H19            0.7845     1.8581    -0.4757 H       
  20 H20           -0.8791     1.8486    -0.2407 H       
  21 H21            0.0563    -3.8481     0.2587 H       
  22 H22           -2.0886    -2.6494     0.1932 H       
  23 H23           -2.1390    -0.2057    -0.0583 H       
  24 H24            6.6005     0.9525    -1.7981 H       
  25 H25            6.2180     4.1337     0.8374 H       
@<TRIPOS>BOND
   1    1    2 1
   2    1   19 1
   3    1   20 1
   4    2    3 ar
   5    2    7 ar
   6    3    4 ar
   7    3   15 1
   8    4    5 ar
   9    4   18 1
  10    5    6 ar
  11    5   21 1
  12    6    7 ar
  13    6   22 1
  14    7   23 1
  15    8    9 ar
  16    8   13 ar
  17    8   24 1
  18    9   10 ar
  19    9   14 1
  20   10   11 ar
  21   10   16 1
  22   11   12 ar
  23   11   17 1
  24   12   13 ar
  25   12   25 1
  26   14   15 1
  27   15   16 2

#	End of record

