#	Name: ASD01028144
#	Creating user name:	WinNT
#	Creation time:	15. 06. 2019 18:56

#	Modifying user name:	WinNT
#	Modification time:	15. 06. 2019 18:56

#	Program:	/corina/corina34_cracker 3.40 0067  02.08.2006

@<TRIPOS>MOLECULE
ASD01028144
  34   35    0    0    0
SMALL
NO_CHARGES


@<TRIPOS>ATOM
   1 N1            -0.0121     1.3870    -0.0222 N.am    
   2 C2            -0.0787     0.0003     0.1024 C.ar    
   3 C3            -1.3149    -0.6620    -0.0099 C.ar    
   4 C4            -2.5395     0.1018    -0.2590 C.2     
   5 C5             1.0758    -0.7370     0.3327 C.ar    
   6 C6             1.0016    -2.1213     0.4558 C.ar    
   7 C7            -0.2269    -2.7683     0.3487 C.ar    
   8 C8            -1.3679    -2.0571     0.1176 C.ar    
   9 O9             2.3793    -0.3542     0.4759 O.3     
  10 C10            3.0413    -1.4743     1.0930 C.3     
  11 O11            2.2569    -2.6068     0.6749 O.3     
  12 C12            0.6869     1.9399    -1.0332 C.2     
  13 O13            1.3403     1.2352    -1.7768 O.2     
  14 O14            0.6613     3.2732    -1.2192 O.3     
  15 C15            1.4377     3.7992    -2.3277 C.3     
  16 C16            0.9327     3.1915    -3.6379 C.3     
  17 C17            1.2865     5.3208    -2.3796 C.3     
  18 C18            2.9121     3.4395    -2.1336 C.3     
  19 O19           -3.5862    -0.4784    -0.4594 O.2     
  20 H20           -0.4721     1.9540     0.6164 H       
  21 H21           -2.5109     1.1814    -0.2645 H       
  22 H22           -0.2761    -3.8428     0.4453 H       
  23 H23           -2.3150    -2.5697     0.0364 H       
  24 H24            4.0650    -1.5621     0.7293 H       
  25 H25            3.0262    -1.3776     2.1786 H       
  26 H26           -0.1177     3.4477    -3.7761 H       
  27 H27            1.5156     3.5863    -4.4700 H       
  28 H28            1.0404     2.1074    -3.6009 H       
  29 H29            1.6463     5.7537    -1.4462 H       
  30 H30            1.8694     5.7156    -3.2118 H       
  31 H31            0.2361     5.5770    -2.5179 H       
  32 H32            3.0198     2.3555    -2.0966 H       
  33 H33            3.4950     3.8343    -2.9658 H       
  34 H34            3.2719     3.8724    -1.2002 H       
@<TRIPOS>BOND
   1    1    2 1
   2    1   12 am
   3    1   20 1
   4    2    3 ar
   5    2    5 ar
   6    3    4 1
   7    3    8 ar
   8    4   19 2
   9    4   21 1
  10    5    6 ar
  11    5    9 1
  12    6    7 ar
  13    6   11 1
  14    7    8 ar
  15    7   22 1
  16    8   23 1
  17    9   10 1
  18   10   11 1
  19   10   24 1
  20   10   25 1
  21   12   13 2
  22   12   14 1
  23   14   15 1
  24   15   16 1
  25   15   17 1
  26   15   18 1
  27   16   26 1
  28   16   27 1
  29   16   28 1
  30   17   29 1
  31   17   30 1
  32   17   31 1
  33   18   32 1
  34   18   33 1
  35   18   34 1

#	End of record

