#	Name: ASD03331617
#	Creating user name:	WinNT
#	Creation time:	15. 06. 2019 20:39

#	Modifying user name:	WinNT
#	Modification time:	15. 06. 2019 20:39

#	Program:	/corina/corina34_cracker 3.40 0067  02.08.2006

@<TRIPOS>MOLECULE
ASD03331617
  54   56    0    0    0
SMALL
NO_CHARGES


@<TRIPOS>ATOM
   1 C1            -0.4796     1.3228    -0.0893 C.3     
   2 N2            -0.5284    -0.1445    -0.1561 N.3     
   3 C3             0.0564    -0.6406    -1.4151 C.3     
   4 C4             1.4008     0.0161    -1.5938 C.2     
   5 N5             1.8037     1.1161    -0.8943 N.pl3   
   6 C6             0.9696     1.7868     0.1068 C.3     
   7 C7             2.4164    -0.3236    -2.4258 C.2     
   8 N8             3.4221     0.5595    -2.2284 N.2     
   9 C9             3.0599     1.4260    -1.3089 C.2     
  10 C10            3.8817     2.5502    -0.8098 C.ar    
  11 C11            4.5328     3.3962    -1.7095 C.ar    
  12 C12            5.2981     4.4443    -1.2363 C.ar    
  13 C13            5.4196     4.6558     0.1249 C.ar    
  14 C14            4.7765     3.8204     1.0213 C.ar    
  15 C15            4.0048     2.7733     0.5620 C.ar    
  16 C16            2.4232    -1.4515    -3.3741 C.2     
  17 O17            1.4526    -2.1793    -3.4604 O.2     
  18 N18            3.5050    -1.6765    -4.1457 N.am    
  19 C19            3.5119    -2.7979    -5.0885 C.3     
  20 C20            2.8492    -2.3669    -6.3985 C.3     
  21 C21            4.9336    -3.2179    -5.3592 C.2     
  22 N22            5.2059    -4.4922    -5.7035 N.am    
  23 O23            5.8328    -2.4092    -5.2673 O.2     
  24 C24            6.5959    -4.9282    -5.8580 C.3     
  25 C25            3.5508    -1.1191    -6.9385 C.3     
  26 C26            2.9605    -3.4981    -7.4226 C.3     
  27 C27            1.3736    -2.0524    -6.1442 C.3     
  28 Cl28           4.3814     3.1313    -3.4185 Cl      
  29 H29           -0.8715     1.7408    -1.0165 H       
  30 H30           -1.0868     1.6677     0.7476 H       
  31 H31           -0.0713    -0.5582     0.6426 H       
  32 H32            0.1787    -1.7225    -1.3635 H       
  33 H33           -0.5941    -0.3820    -2.2506 H       
  34 H34            1.0312     2.8668    -0.0269 H       
  35 H35            1.3092     1.5195     1.1074 H       
  36 H36            5.8028     5.0997    -1.9307 H       
  37 H37            6.0193     5.4764     0.4900 H       
  38 H38            4.8756     3.9913     2.0831 H       
  39 H39            3.5034     2.1225     1.2631 H       
  40 H40            4.2791    -1.0961    -4.0769 H       
  41 H41            2.9607    -3.6354    -4.6609 H       
  42 H42            4.4814    -5.1207    -5.8489 H       
  43 H43            6.6174    -5.9817    -6.1368 H       
  44 H44            7.0779    -4.3365    -6.6362 H       
  45 H45            7.1267    -4.7908    -4.9159 H       
  46 H46            4.6020    -1.3431    -7.1197 H       
  47 H47            3.0787    -0.8120    -7.8717 H       
  48 H48            3.4715    -0.3132    -6.2089 H       
  49 H49            2.4123    -4.3689    -7.0631 H       
  50 H50            2.5391    -3.1705    -8.3730 H       
  51 H51            4.0092    -3.7607    -7.5614 H       
  52 H52            1.2943    -1.2466    -5.4145 H       
  53 H53            0.9015    -1.7454    -7.0774 H       
  54 H54            0.8737    -2.9414    -5.7594 H       
@<TRIPOS>BOND
   1    1    2 1
   2    1    6 1
   3    1   29 1
   4    1   30 1
   5    2    3 1
   6    2   31 1
   7    3    4 1
   8    3   32 1
   9    3   33 1
  10    4    5 1
  11    4    7 2
  12    5    6 1
  13    5    9 1
  14    6   34 1
  15    6   35 1
  16    7    8 1
  17    7   16 1
  18    8    9 2
  19    9   10 1
  20   10   11 ar
  21   10   15 ar
  22   11   12 ar
  23   11   28 1
  24   12   13 ar
  25   12   36 1
  26   13   14 ar
  27   13   37 1
  28   14   15 ar
  29   14   38 1
  30   15   39 1
  31   16   17 2
  32   16   18 am
  33   18   19 1
  34   18   40 1
  35   19   20 1
  36   19   21 1
  37   19   41 1
  38   20   25 1
  39   20   26 1
  40   20   27 1
  41   21   22 am
  42   21   23 2
  43   22   24 1
  44   22   42 1
  45   24   43 1
  46   24   44 1
  47   24   45 1
  48   25   46 1
  49   25   47 1
  50   25   48 1
  51   26   49 1
  52   26   50 1
  53   26   51 1
  54   27   52 1
  55   27   53 1
  56   27   54 1

#	End of record

