#	Name: ASD01810079
#	Creating user name:	WinNT
#	Creation time:	15. 06. 2019 19:23

#	Modifying user name:	WinNT
#	Modification time:	15. 06. 2019 19:23

#	Program:	/corina/corina34_cracker 3.40 0067  02.08.2006

@<TRIPOS>MOLECULE
ASD01810079
  32   34    0    0    0
SMALL
NO_CHARGES


@<TRIPOS>ATOM
   1 C1            -0.0167     1.3804     0.0096 C.ar    
   2 C2             0.0021    -0.0041     0.0020 C.ar    
   3 C3             1.2005    -0.6935    -0.0132 C.ar    
   4 C4             2.4043    -0.0017    -0.0205 C.ar    
   5 C5             2.3825     1.4028    -0.0128 C.ar    
   6 C6             1.1684     2.0883     0.0021 C.ar    
   7 N7             3.7234    -0.4489    -0.0358 N.am    
   8 C8             4.5905     0.5782    -0.0388 C.2     
   9 C9             3.7890     1.8460    -0.0242 C.2     
  10 O10            4.2062     2.9855    -0.0225 O.2     
  11 O11            5.8007     0.4950    -0.0505 O.2     
  12 C12            4.1161    -1.8603    -0.0472 C.3     
  13 C13            4.2368    -2.3366    -1.4719 C.ar    
  14 C14            5.4455    -2.2341    -2.1348 C.ar    
  15 C15            5.5563    -2.6710    -3.4417 C.ar    
  16 C16            4.4585    -3.2108    -4.0854 C.ar    
  17 C17            3.2500    -3.3141    -3.4221 C.ar    
  18 C18            3.1404    -2.8812    -2.1139 C.ar    
  19 C19            4.5789    -3.6861    -5.5103 C.3     
  20 F20            4.9549    -5.0336    -5.5222 F       
  21 F21            3.3467    -3.5401    -6.1564 F       
  22 F22            5.5471    -2.9260    -6.1752 F       
  23 H23           -0.9596     1.9070     0.0170 H       
  24 H24           -0.9291    -0.5511     0.0084 H       
  25 H25            1.2002    -1.7735    -0.0190 H       
  26 H26            1.1552     3.1682     0.0077 H       
  27 H27            5.0759    -1.9745     0.4566 H       
  28 H28            3.3611    -2.4517     0.4708 H       
  29 H29            6.3032    -1.8124    -1.6319 H       
  30 H30            6.5004    -2.5903    -3.9598 H       
  31 H31            2.3922    -3.7355    -3.9251 H       
  32 H32            2.1963    -2.9619    -1.5957 H       
@<TRIPOS>BOND
   1    1    2 ar
   2    1    6 ar
   3    1   23 1
   4    2    3 ar
   5    2   24 1
   6    3    4 ar
   7    3   25 1
   8    4    5 ar
   9    4    7 1
  10    5    6 ar
  11    5    9 1
  12    6   26 1
  13    7    8 am
  14    7   12 1
  15    8    9 1
  16    8   11 2
  17    9   10 2
  18   12   13 1
  19   12   27 1
  20   12   28 1
  21   13   14 ar
  22   13   18 ar
  23   14   15 ar
  24   14   29 1
  25   15   16 ar
  26   15   30 1
  27   16   17 ar
  28   16   19 1
  29   17   18 ar
  30   17   31 1
  31   18   32 1
  32   19   20 1
  33   19   21 1
  34   19   22 1

#	End of record

