#	Name: ASD08178443
#	Creating user name:	WinNT
#	Creation time:	15. 06. 2019 21:18

#	Modifying user name:	WinNT
#	Modification time:	15. 06. 2019 21:18

#	Program:	/corina/corina34_cracker 3.40 0067  02.08.2006

@<TRIPOS>MOLECULE
ASD08178443
  83   85    0    0    0
SMALL
NO_CHARGES


@<TRIPOS>ATOM
   1 C1             0.3017     0.9166     1.3869 C.2     
   2 C2             0.1827    -0.3442     0.9532 C.2     
   3 C3            -1.1072    -0.8272     0.4461 C.2     
   4 C4            -1.2270    -2.0968     0.0094 C.2     
   5 N5            -0.1296    -2.9482     0.0394 N.pl3   
   6 N6            -0.8014     1.7696     1.3622 N.pl3   
   7 C7             1.6261     1.4125     1.9076 C.3     
   8 C8             2.3865     2.1146     0.7809 C.3     
   9 C9             3.7311     2.6181     1.3095 C.3     
  10 C10            4.4916     3.3202     0.1828 C.3     
  11 C11            5.8160     3.8160     0.7035 C.2     
  12 N12            6.9322     3.1590     0.7011 N.2     
  13 N13            7.9371     3.7509     1.1847 N.2     
  14 C14            7.7665     4.9559     1.6385 C.2     
  15 S15            6.1262     5.3983     1.4188 S.3     
  16 N16            8.7533     5.7564     2.2039 N.am    
  17 C17           10.0142     5.2938     2.3159 C.2     
  18 O18           10.2883     4.1794     1.9236 O.2     
  19 C19           11.0835     6.1612     2.9285 C.3     
  20 C20           12.3927     5.4150     2.9356 C.ar    
  21 C21           13.2521     5.5170     1.8579 C.ar    
  22 C22           14.4532     4.8324     1.8644 C.ar    
  23 C23           14.7948     4.0464     2.9487 C.ar    
  24 C24           13.9356     3.9450     4.0271 C.ar    
  25 C25           12.7368     4.6329     4.0225 C.ar    
  26 N26           -2.4493    -2.5544    -0.4711 N.am    
  27 C27           -2.5408    -3.7822    -1.0195 C.2     
  28 O28           -1.5411    -4.4495    -1.1829 O.2     
  29 C29           -3.8851    -4.3260    -1.4297 C.3     
  30 C30           -3.7128    -5.7058    -2.0107 C.ar    
  31 C31           -3.7735    -6.8148    -1.1877 C.ar    
  32 C32           -3.6155    -8.0804    -1.7206 C.ar    
  33 C33           -3.3971    -8.2371    -3.0766 C.ar    
  34 C34           -3.3373    -7.1281    -3.8997 C.ar    
  35 C35           -3.4997    -5.8627    -3.3674 C.ar    
  36 C36           14.3079     3.0876     5.2092 C.3     
  37 S37           15.2201     4.0868     6.4175 S.o2    
  38 C38           15.5580     2.8764     7.7258 C.3     
  39 C39           16.3377     3.5514     8.8560 C.3     
  40 C40           16.6227     2.5305     9.9594 C.3     
  41 C41           17.4024     3.2055    11.0896 C.3     
  42 O42           16.4553     4.4828     5.8372 O.2     
  43 O43           14.3463     5.0807     6.9350 O.2     
  44 H44            1.0358    -1.0061     0.9766 H       
  45 H45           -1.9603    -0.1653     0.4228 H       
  46 H46            0.7673    -2.5862    -0.0339 H       
  47 H47           -0.2602    -3.9047     0.1337 H       
  48 H48           -1.6549     1.4492     1.0307 H       
  49 H49           -0.7151     2.6832     1.6764 H       
  50 H50            1.4557     2.1148     2.7236 H       
  51 H51            2.2126     0.5687     2.2710 H       
  52 H52            2.5569     1.4123    -0.0351 H       
  53 H53            1.8000     2.9585     0.4175 H       
  54 H54            3.5608     3.3204     2.1255 H       
  55 H55            4.3176     1.7742     1.6729 H       
  56 H56            4.6620     2.6178    -0.6332 H       
  57 H57            3.9051     4.1640    -0.1806 H       
  58 H58            8.5340     6.6477     2.5176 H       
  59 H59           11.1892     7.0750     2.3439 H       
  60 H60           10.8041     6.4145     3.9512 H       
  61 H61           12.9852     6.1312     1.0106 H       
  62 H62           15.1244     4.9116     1.0220 H       
  63 H63           15.7328     3.5110     2.9534 H       
  64 H64           12.0656     4.5537     4.8649 H       
  65 H65           -3.2359    -1.9900    -0.4116 H       
  66 H66           -4.5374    -4.3776    -0.5580 H       
  67 H67           -4.3296    -3.6696    -2.1778 H       
  68 H68           -3.9442    -6.6924    -0.1283 H       
  69 H69           -3.6622    -8.9468    -1.0775 H       
  70 H70           -3.2729    -9.2259    -3.4928 H       
  71 H71           -3.1663    -7.2505    -4.9590 H       
  72 H72           -3.4529    -4.9963    -4.0105 H       
  73 H73           13.4028     2.6944     5.6722 H       
  74 H74           14.9340     2.2603     4.8751 H       
  75 H75           14.6162     2.4894     8.1147 H       
  76 H76           16.1474     2.0553     7.3177 H       
  77 H77           17.2795     3.9384     8.4670 H       
  78 H78           15.7483     4.3725     9.2641 H       
  79 H79           15.6809     2.1435    10.3484 H       
  80 H80           17.2121     1.7094     9.5513 H       
  81 H81           18.3442     3.5925    10.7006 H       
  82 H82           16.8130     4.0266    11.4977 H       
  83 H83           17.6054     2.4782    11.8757 H       
@<TRIPOS>BOND
   1    1    2 2
   2    1    7 1
   3    1    6 1
   4    2    3 1
   5    2   44 1
   6    3    4 2
   7    3   45 1
   8    4    5 1
   9    4   26 1
  10    5   46 1
  11    5   47 1
  12    6   48 1
  13    6   49 1
  14    7    8 1
  15    7   50 1
  16    7   51 1
  17    8    9 1
  18    8   52 1
  19    8   53 1
  20    9   10 1
  21    9   54 1
  22    9   55 1
  23   10   11 1
  24   10   56 1
  25   10   57 1
  26   11   12 2
  27   11   15 1
  28   12   13 1
  29   13   14 2
  30   14   15 1
  31   14   16 1
  32   16   17 am
  33   16   58 1
  34   17   18 2
  35   17   19 1
  36   19   20 1
  37   19   59 1
  38   19   60 1
  39   20   21 ar
  40   20   25 ar
  41   21   22 ar
  42   21   61 1
  43   22   23 ar
  44   22   62 1
  45   23   24 ar
  46   23   63 1
  47   24   25 ar
  48   24   36 1
  49   25   64 1
  50   26   27 am
  51   26   65 1
  52   27   28 2
  53   27   29 1
  54   29   30 1
  55   29   66 1
  56   29   67 1
  57   30   31 ar
  58   30   35 ar
  59   31   32 ar
  60   31   68 1
  61   32   33 ar
  62   32   69 1
  63   33   34 ar
  64   33   70 1
  65   34   35 ar
  66   34   71 1
  67   35   72 1
  68   36   37 1
  69   36   73 1
  70   36   74 1
  71   37   38 1
  72   37   42 2
  73   37   43 2
  74   38   39 1
  75   38   75 1
  76   38   76 1
  77   39   40 1
  78   39   77 1
  79   39   78 1
  80   40   41 1
  81   40   79 1
  82   40   80 1
  83   41   81 1
  84   41   82 1
  85   41   83 1

#	End of record

