#	Name: ASD01850027
#	Creating user name:	WinNT
#	Creation time:	15. 06. 2019 19:38

#	Modifying user name:	WinNT
#	Modification time:	15. 06. 2019 19:38

#	Program:	/corina/corina34_cracker 3.40 0067  02.08.2006

@<TRIPOS>MOLECULE
ASD01850027
  51   55    0    0    0
SMALL
NO_CHARGES


@<TRIPOS>ATOM
   1 C1             1.0774     1.1160     0.2213 C.3     
   2 C2             0.8081    -0.3631     0.1177 C.ar    
   3 C3             0.8056    -1.1466     1.2566 C.ar    
   4 C4             0.5586    -2.5034     1.1616 C.ar    
   5 C5             0.3137    -3.0766    -0.0723 C.ar    
   6 C6             0.3153    -2.2929    -1.2110 C.ar    
   7 C7             0.5580    -0.9354    -1.1155 C.ar    
   8 C8             0.0455    -4.5559    -0.1760 C.3     
   9 N9            -0.6196    -5.0533     1.0342 N.am    
  10 C10            0.4515    -5.5371     1.9315 C.3     
  11 C11            1.7693    -5.3511     1.1408 C.3     
  12 N12            1.3139    -5.3213    -0.2600 N.am    
  13 C13            1.4868    -5.6780    -1.5331 C.2     
  14 O14            2.5390    -6.0384    -2.0234 O.2     
  15 C15            0.2019    -5.5678    -2.2569 C.ar    
  16 C16           -0.7182    -4.8752    -1.4294 C.ar    
  17 C17           -2.0049    -4.6528    -1.8625 C.ar    
  18 C18           -2.4015    -5.0951    -3.1132 C.ar    
  19 C19           -1.5071    -5.7618    -3.9322 C.ar    
  20 C20           -0.2055    -5.9940    -3.5208 C.ar    
  21 C21           -1.9448    -5.0660     1.2794 C.2     
  22 O22           -2.7129    -4.5435     0.4956 O.2     
  23 C23           -2.4641    -5.7154     2.5019 C.ar    
  24 C24           -3.8388    -5.8825     2.6768 C.ar    
  25 C25           -4.3168    -6.4897     3.8196 C.ar    
  26 C26           -3.4369    -6.9322     4.7913 C.ar    
  27 C27           -2.0731    -6.7697     4.6241 C.ar    
  28 C28           -1.5817    -6.1693     3.4834 C.ar    
  29 C29           -3.9664    -7.5938     6.0375 C.3     
  30 F30           -4.0636    -8.9735     5.8277 F       
  31 F31           -3.0956    -7.3444     7.1037 F       
  32 F32           -5.2314    -7.0775     6.3381 F       
  33 H33            2.1481     1.2978     0.1282 H       
  34 H34            0.5495     1.6382    -0.5767 H       
  35 H35            0.7294     1.4819     1.1873 H       
  36 H36            0.9969    -0.6988     2.2205 H       
  37 H37            0.5574    -3.1156     2.0512 H       
  38 H38            0.1243    -2.7408    -2.1750 H       
  39 H39            0.5593    -0.3232    -2.0052 H       
  40 H40            0.4736    -4.9443     2.8460 H       
  41 H41            0.2988    -6.5902     2.1675 H       
  42 H42            2.2507    -4.4108     1.4097 H       
  43 H43            2.4421    -6.1919     1.3096 H       
  44 H44           -2.7062    -4.1332    -1.2265 H       
  45 H45           -3.4124    -4.9195    -3.4505 H       
  46 H46           -1.8214    -6.1002    -4.9085 H       
  47 H47            0.4824    -6.5154    -4.1700 H       
  48 H48           -4.5267    -5.5368     1.9193 H       
  49 H49           -5.3803    -6.6196     3.9562 H       
  50 H50           -1.3916    -7.1174     5.3864 H       
  51 H51           -0.5169    -6.0434     3.3539 H       
@<TRIPOS>BOND
   1    1    2 1
   2    1   33 1
   3    1   34 1
   4    1   35 1
   5    2    3 ar
   6    2    7 ar
   7    3    4 ar
   8    3   36 1
   9    4    5 ar
  10    4   37 1
  11    5    6 ar
  12    5    8 1
  13    6    7 ar
  14    6   38 1
  15    7   39 1
  16    8    9 1
  17    8   12 1
  18    8   16 1
  19    9   10 1
  20    9   21 am
  21   10   11 1
  22   10   40 1
  23   10   41 1
  24   11   12 1
  25   11   42 1
  26   11   43 1
  27   12   13 am
  28   13   14 2
  29   13   15 1
  30   15   16 ar
  31   15   20 ar
  32   16   17 ar
  33   17   18 ar
  34   17   44 1
  35   18   19 ar
  36   18   45 1
  37   19   20 ar
  38   19   46 1
  39   20   47 1
  40   21   22 2
  41   21   23 1
  42   23   24 ar
  43   23   28 ar
  44   24   25 ar
  45   24   48 1
  46   25   26 ar
  47   25   49 1
  48   26   27 ar
  49   26   29 1
  50   27   28 ar
  51   27   50 1
  52   28   51 1
  53   29   30 1
  54   29   31 1
  55   29   32 1

#	End of record

