#	Name: ASD07932210
#	Creating user name:	WinNT
#	Creation time:	15. 06. 2019 21:14

#	Modifying user name:	WinNT
#	Modification time:	15. 06. 2019 21:14

#	Program:	/corina/corina34_cracker 3.40 0067  02.08.2006

@<TRIPOS>MOLECULE
ASD07932210
  73   75    0    0    0
SMALL
NO_CHARGES


@<TRIPOS>ATOM
   1 Cl1            0.0000     0.0000     0.0000 Cl      
   2 H2             0.0000     1.3700     0.0000 H       
   3 Cl3            5.0000     6.3700     5.0000 Cl      
   4 H4             5.0000     7.7400     5.0000 H       
   5 C5            10.9496    20.4445    13.0849 C.ar    
   6 C6            10.9798    19.0517    13.0813 C.ar    
   7 C7            12.1600    18.3769    12.9993 C.ar    
   8 C8            13.3654    19.0911    12.9166 C.ar    
   9 C9            13.3407    20.5104    12.9193 C.ar    
  10 C10           12.0986    21.1728    13.0061 C.ar    
  11 C11           14.6039    18.4271    12.8312 C.ar    
  12 C12           15.7377    19.1828    12.7538 C.ar    
  13 C13           15.6448    20.5828    12.7611 C.ar    
  14 N14           14.4801    21.1961    12.8420 N.ar    
  15 C15           16.8845    21.3912    12.6769 C.2     
  16 N16           16.8131    22.7371    12.6827 N.am    
  17 O17           17.9651    20.8405    12.6028 O.2     
  18 C18           18.0383    23.5360    12.5996 C.3     
  19 C19           17.7951    24.9095    13.2282 C.3     
  20 C20           19.0747    25.7439    13.1413 C.3     
  21 C21           19.4716    25.9176    11.6740 C.3     
  22 C22           19.7148    24.5441    11.0454 C.3     
  23 C23           18.4353    23.7097    11.1322 C.3     
  24 O24           17.4244    24.7473    14.5987 O.3     
  25 C25           14.6757    16.9218    12.8257 C.3     
  26 N26           14.4667    16.4167    14.1892 N.3     
  27 C27           14.1643    14.9797    14.1775 C.3     
  28 C28           13.8105    14.5200    15.5936 C.3     
  29 C29           14.9904    14.8047    16.5271 C.3     
  30 C30           15.3159    16.3003    16.4840 C.3     
  31 C31           15.6260    16.7084    15.0420 C.3     
  32 C32           14.6256    14.4091    17.9348 C.ar    
  33 F33           12.0482    22.5228    13.0106 F       
  34 C34           16.1638    14.0329    16.0863 C.1     
  35 N35           17.0693    13.4373    15.7462 N.1     
  36 N36           13.3627    14.1896    18.2435 N.ar    
  37 C37           12.9969    13.8416    19.4619 C.ar    
  38 C38           13.9344    13.6942    20.4664 C.ar    
  39 C39           15.2727    13.9167    20.1795 C.ar    
  40 C40           15.6196    14.2751    18.8860 C.ar    
  41 C41           16.3257    13.7669    21.2471 C.3     
  42 H42           10.0000    20.9552    13.1467 H       
  43 H43           10.0541    18.4991    13.1449 H       
  44 H44           12.1684    17.2969    12.9983 H       
  45 H45           16.7038    18.7045    12.6875 H       
  46 H46           15.9505    23.1767    12.7420 H       
  47 H47           18.8403    23.0281    13.1353 H       
  48 H48           16.9931    25.4174    12.6925 H       
  49 H49           18.9014    26.7224    13.5891 H       
  50 H50           19.8767    25.2360    13.6770 H       
  51 H51           18.6696    26.4255    11.1383 H       
  52 H52           20.3832    26.5120    11.6121 H       
  53 H53           19.9976    24.6678    10.0000 H       
  54 H54           20.5168    24.0362    11.5811 H       
  55 H55           18.6085    22.7312    10.6844 H       
  56 H56           17.6333    24.2176    10.5965 H       
  57 H57           17.2544    25.5793    15.0613 H       
  58 H58           13.9030    16.5236    12.1682 H       
  59 H59           15.6556    16.6061    12.4676 H       
  60 H60           13.3209    14.7915    13.5132 H       
  61 H61           15.0353    14.4282    13.8236 H       
  62 H62           12.9312    15.0613    15.9429 H       
  63 H63           13.6013    13.4503    15.5873 H       
  64 H64           14.4603    16.8695    16.8473 H       
  65 H65           16.1822    16.5025    17.1138 H       
  66 H66           16.4902    16.1488    14.6840 H       
  67 H67           15.8443    17.7757    15.0056 H       
  68 H68           11.9526    13.6701    19.6772 H       
  69 H69           13.6286    13.4097    21.4623 H       
  70 H70           16.6524    14.4557    18.6269 H       
  71 H71           16.6910    12.7400    21.2557 H       
  72 H72           17.1533    14.4452    21.0390 H       
  73 H73           15.8946    14.0074    22.2189 H       
@<TRIPOS>BOND
   1    1    2 1
   2    3    4 1
   3    5    6 ar
   4    5   10 ar
   5    5   42 1
   6    6    7 ar
   7    6   43 1
   8    7    8 ar
   9    7   44 1
  10    8    9 ar
  11    8   11 ar
  12    9   10 ar
  13    9   14 ar
  14   10   33 1
  15   11   12 ar
  16   11   25 1
  17   12   13 ar
  18   12   45 1
  19   13   14 ar
  20   13   15 1
  21   15   16 am
  22   15   17 2
  23   16   18 1
  24   16   46 1
  25   18   19 1
  26   18   23 1
  27   18   47 1
  28   19   20 1
  29   19   24 1
  30   19   48 1
  31   20   21 1
  32   20   49 1
  33   20   50 1
  34   21   22 1
  35   21   51 1
  36   21   52 1
  37   22   23 1
  38   22   53 1
  39   22   54 1
  40   23   55 1
  41   23   56 1
  42   24   57 1
  43   25   26 1
  44   25   58 1
  45   25   59 1
  46   26   27 1
  47   26   31 1
  48   27   28 1
  49   27   60 1
  50   27   61 1
  51   28   29 1
  52   28   62 1
  53   28   63 1
  54   29   30 1
  55   29   32 1
  56   29   34 1
  57   30   31 1
  58   30   64 1
  59   30   65 1
  60   31   66 1
  61   31   67 1
  62   32   36 ar
  63   32   40 ar
  64   34   35 3
  65   36   37 ar
  66   37   38 ar
  67   37   68 1
  68   38   39 ar
  69   38   69 1
  70   39   40 ar
  71   39   41 1
  72   40   70 1
  73   41   71 1
  74   41   72 1
  75   41   73 1

#	End of record

