#	Name: ASD01881671
#	Creating user name:	WinNT
#	Creation time:	15. 06. 2019 19:43

#	Modifying user name:	WinNT
#	Modification time:	15. 06. 2019 19:43

#	Program:	/corina/corina34_cracker 3.40 0067  02.08.2006

@<TRIPOS>MOLECULE
ASD01881671
  44   46    0    0    0
SMALL
NO_CHARGES


@<TRIPOS>ATOM
   1 C1            -0.0187     1.5258     0.0104 C.3     
   2 C2             0.0021    -0.0041     0.0020 C.3     
   3 C3            -1.4266    -0.5342     0.1385 C.3     
   4 C4            -2.2721    -0.0292    -1.0324 C.3     
   5 O5             0.5662    -0.4660    -1.2270 O.3     
   6 C6            -1.4059    -2.0641     0.1301 C.3     
   7 C7            -2.0306    -0.0396     1.4544 C.3     
   8 O8             1.3220     2.0204     0.0003 O.3     
   9 N9             2.2400     7.4205     0.0200 N.pl3   
  10 N10            3.6403     7.3392     0.0069 N.2     
  11 N11            3.9973     6.1034    -0.0026 N.2     
  12 C12            2.9132     5.3024     0.0031 C.ar    
  13 C13            1.7738     6.1256     0.0177 C.ar    
  14 C14            2.7516     3.9101    -0.0032 C.ar    
  15 C15            1.4818     3.3708     0.0060 C.ar    
  16 C16            0.3624     4.1994     0.0207 C.ar    
  17 C17            0.5044     5.5585     0.0256 C.ar    
  18 C18            1.4328     8.6429     0.0390 C.3     
  19 C19            1.1385     9.0821    -1.3968 C.3     
  20 C20            0.2058    10.2790    -1.5923 C.3     
  21 C21            1.7059    10.4273    -1.8544 C.3     
  22 Br22           4.2656     2.7773    -0.0234 Br      
  23 H23           -0.5459     1.8868    -0.8726 H       
  24 H24           -0.5289     1.8773     0.9072 H       
  25 H25            0.6044    -0.3639     0.8362 H       
  26 H26           -1.8418    -0.3816    -1.9698 H       
  27 H27           -3.2899    -0.4069    -0.9351 H       
  28 H28           -2.2869     1.0607    -1.0264 H       
  29 H29            0.0804    -0.1829    -2.0137 H       
  30 H30           -0.8035    -2.4239     0.9643 H       
  31 H31           -2.4237    -2.4418     0.2274 H       
  32 H32           -0.9756    -2.4165    -0.8073 H       
  33 H33           -2.0454     1.0503     1.4604 H       
  34 H34           -3.0484    -0.4173     1.5517 H       
  35 H35           -1.4283    -0.3994     2.2886 H       
  36 H36           -0.6260     3.7642     0.0274 H       
  37 H37           -0.3698     6.1924     0.0368 H       
  38 H38            0.4947     8.4508     0.5596 H       
  39 H39            1.9800     9.4316     0.5553 H       
  40 H40            1.0889     8.2798    -2.1330 H       
  41 H41           -0.4572    10.2644    -2.4574 H       
  42 H42           -0.1982    10.7536    -0.6981 H       
  43 H43            2.2888    10.9994    -1.1326 H       
  44 H44            2.0298    10.5102    -2.8919 H       
@<TRIPOS>BOND
   1    1    2 1
   2    1    8 1
   3    1   23 1
   4    1   24 1
   5    2    3 1
   6    2    5 1
   7    2   25 1
   8    3    4 1
   9    3    6 1
  10    3    7 1
  11    4   26 1
  12    4   27 1
  13    4   28 1
  14    5   29 1
  15    6   30 1
  16    6   31 1
  17    6   32 1
  18    7   33 1
  19    7   34 1
  20    7   35 1
  21    8   15 1
  22    9   10 1
  23    9   13 1
  24    9   18 1
  25   10   11 2
  26   11   12 1
  27   12   13 ar
  28   12   14 ar
  29   13   17 ar
  30   14   15 ar
  31   14   22 1
  32   15   16 ar
  33   16   17 ar
  34   16   36 1
  35   17   37 1
  36   18   19 1
  37   18   38 1
  38   18   39 1
  39   19   20 1
  40   19   21 1
  41   19   40 1
  42   20   21 1
  43   20   41 1
  44   20   42 1
  45   21   43 1
  46   21   44 1

#	End of record

