#	Name: ASD02038407
#	Creating user name:	WinNT
#	Creation time:	15. 06. 2019 20:16

#	Modifying user name:	WinNT
#	Modification time:	15. 06. 2019 20:16

#	Program:	/corina/corina34_cracker 3.40 0067  02.08.2006

@<TRIPOS>MOLECULE
ASD02038407
  41   42    0    0    0
SMALL
NO_CHARGES


@<TRIPOS>ATOM
   1 N1            -0.0162     1.3436     0.0094 N.am    
   2 C2             0.0021    -0.0041     0.0020 C.2     
   3 C3            -1.2926    -0.7753     0.0102 C.3     
   4 C4            -0.9927    -2.2755    -0.0007 C.3     
   5 C5            -2.2874    -3.0467     0.0075 C.ar    
   6 C6            -2.8918    -3.3935    -1.1867 C.ar    
   7 C7            -4.0786    -4.1004    -1.1819 C.ar    
   8 C8            -4.6641    -4.4624     0.0226 C.ar    
   9 C9            -4.0557    -4.1133     1.2196 C.ar    
  10 C10           -2.8660    -3.4112     1.2093 C.ar    
  11 C11            0.9425     3.5935     0.0124 C.3     
  12 C12            1.2424     2.0932     0.0014 C.3     
  13 O13            1.0605    -0.5961    -0.0113 O.2     
  14 O14           -5.8319    -5.1574     0.0300 O.3     
  15 N15            2.2011     4.3432     0.0044 N.pl3   
  16 C16            2.1821     5.7412     0.0121 C.ar    
  17 C17            3.3746     6.4526     0.0045 C.ar    
  18 C18            0.9706     6.4200     0.0215 C.ar    
  19 C19            2.1475     8.5103     0.0263 C.ar    
  20 C20            3.3548     7.8342     0.0116 C.ar    
  21 C21            0.9545     7.8027     0.0286 C.ar    
  22 F22           -0.2233     8.4645     0.0373 F       
  23 F23            2.1308     9.8612     0.0337 F       
  24 H24           -0.8627     1.8171     0.0160 H       
  25 H25           -1.8592    -0.5245     0.9070 H       
  26 H26           -1.8762    -0.5150    -0.8728 H       
  27 H27           -0.4261    -2.5263    -0.8975 H       
  28 H28           -0.4091    -2.5358     0.8824 H       
  29 H29           -2.4358    -3.1111    -2.1241 H       
  30 H30           -4.5505    -4.3707    -2.1150 H       
  31 H31           -4.5095    -4.3939     2.1585 H       
  32 H32           -2.3919    -3.1392     2.1408 H       
  33 H33            0.3589     3.8538    -0.8707 H       
  34 H34            0.3759     3.8443     0.9091 H       
  35 H35            1.8260     1.8329     0.8845 H       
  36 H36            1.8090     1.8425    -0.8954 H       
  37 H37           -5.7181    -6.1177     0.0236 H       
  38 H38            3.0476     3.8697    -0.0063 H       
  39 H39            4.3175     5.9261    -0.0066 H       
  40 H40            0.0419     5.8686     0.0229 H       
  41 H41            4.2826     8.3870     0.0098 H       
@<TRIPOS>BOND
   1    1    2 am
   2    1   12 1
   3    1   24 1
   4    2   13 2
   5    2    3 1
   6    3    4 1
   7    3   25 1
   8    3   26 1
   9    4    5 1
  10    4   27 1
  11    4   28 1
  12    5    6 ar
  13    5   10 ar
  14    6    7 ar
  15    6   29 1
  16    7    8 ar
  17    7   30 1
  18    8    9 ar
  19    8   14 1
  20    9   10 ar
  21    9   31 1
  22   10   32 1
  23   11   12 1
  24   11   15 1
  25   11   33 1
  26   11   34 1
  27   12   35 1
  28   12   36 1
  29   14   37 1
  30   15   16 1
  31   15   38 1
  32   16   17 ar
  33   16   18 ar
  34   17   20 ar
  35   17   39 1
  36   18   21 ar
  37   18   40 1
  38   19   20 ar
  39   19   23 1
  40   19   21 ar
  41   20   41 1
  42   21   22 1

#	End of record

