#	Name: ASD00170038
#	Creating user name:	WinNT
#	Creation time:	15. 06. 2019 18:31

#	Modifying user name:	WinNT
#	Modification time:	15. 06. 2019 18:31

#	Program:	/corina/corina34_cracker 3.40 0067  02.08.2006

@<TRIPOS>MOLECULE
ASD00170038
  39   42    0    0    0
SMALL
NO_CHARGES


@<TRIPOS>ATOM
   1 C1             0.5945     2.5501     1.2913 C.ar    
   2 C2             1.2042     2.2330     2.5294 C.ar    
   3 C3             0.5545     2.5771     3.7278 C.ar    
   4 C4            -0.6510     3.2102     3.7067 C.ar    
   5 C5            -1.2841     3.5396     2.5161 C.ar    
   6 C6            -0.7019     3.2245     1.2953 C.ar    
   7 C7             1.2379     2.2087     0.0956 C.ar    
   8 C8             2.4441     1.5750     0.1368 C.ar    
   9 C9             3.0465     1.2618     1.3530 C.ar    
  10 C10            2.4482     1.5793     2.5342 C.ar    
  11 C11           -1.3728     3.5736     0.0288 C.2     
  12 C12           -2.7192     4.1474     0.0478 C.2     
  13 O13           -0.8063     3.3844    -1.0330 O.2     
  14 C14           -2.9808     5.5664     0.2157 C.2     
  15 C15           -4.2873     5.8498     0.1987 C.2     
  16 S16           -5.2411     4.3922    -0.0225 S.3     
  17 C17           -3.8597     3.4002    -0.0970 C.2     
  18 N18           -3.8845     2.0312    -0.2726 N.pl3   
  19 C19           -1.8957     6.6168     0.3920 C.3     
  20 C20           -2.4951     7.9967     0.1118 C.3     
  21 C21           -3.7799     8.1623     0.9290 C.3     
  22 C22           -4.8612     7.2458     0.3508 C.3     
  23 I23            1.4494     2.1110     5.5638 I       
  24 H24           -1.1280     3.4625     4.6422 H       
  25 H25           -2.2402     4.0414     2.5394 H       
  26 H26            0.7811     2.4457    -0.8539 H       
  27 H27            2.9393     1.3118    -0.7861 H       
  28 H28            4.0025     0.7595     1.3592 H       
  29 H29            2.9271     1.3302     3.4696 H       
  30 H30           -4.7321     1.5598    -0.2904 H       
  31 H31           -3.0544     1.5406    -0.3783 H       
  32 H32           -1.5175     6.5834     1.4137 H       
  33 H33           -1.0825     6.4229    -0.3073 H       
  34 H34           -1.7804     8.7689     0.3964 H       
  35 H35           -2.7249     8.0852    -0.9500 H       
  36 H36           -3.5892     7.8909     1.9673 H       
  37 H37           -4.1141     9.1985     0.8771 H       
  38 H38           -5.1744     7.6198    -0.6239 H       
  39 H39           -5.7163     7.2182     1.0261 H       
@<TRIPOS>BOND
   1    1    2 ar
   2    1    7 ar
   3    1    6 ar
   4    2    3 ar
   5    2   10 ar
   6    3    4 ar
   7    3   23 1
   8    4    5 ar
   9    4   24 1
  10    5    6 ar
  11    5   25 1
  12    6   11 1
  13    7    8 ar
  14    7   26 1
  15    8    9 ar
  16    8   27 1
  17    9   10 ar
  18    9   28 1
  19   10   29 1
  20   11   12 1
  21   11   13 2
  22   12   14 1
  23   12   17 2
  24   14   15 2
  25   14   19 1
  26   15   16 1
  27   15   22 1
  28   16   17 1
  29   17   18 1
  30   18   30 1
  31   18   31 1
  32   19   20 1
  33   19   32 1
  34   19   33 1
  35   20   21 1
  36   20   34 1
  37   20   35 1
  38   21   22 1
  39   21   36 1
  40   21   37 1
  41   22   38 1
  42   22   39 1

#	End of record

