#	Name: ASD01850061
#	Creating user name:	WinNT
#	Creation time:	15. 06. 2019 19:38

#	Modifying user name:	WinNT
#	Modification time:	15. 06. 2019 19:38

#	Program:	/corina/corina34_cracker 3.40 0067  02.08.2006

@<TRIPOS>MOLECULE
ASD01850061
  56   59    0    0    0
SMALL
NO_CHARGES


@<TRIPOS>ATOM
   1 C1             6.6061     6.2849    -0.7689 C.ar    
   2 C2             7.4766     6.3750    -1.8418 C.ar    
   3 C3             7.2435     5.6302    -2.9855 C.ar    
   4 C4             6.1424     4.7979    -3.0549 C.ar    
   5 C5             5.2739     4.7089    -1.9830 C.ar    
   6 C6             5.5057     5.4520    -0.8406 C.ar    
   7 C7             4.3255     2.3089    -0.0236 C.3     
   8 N8             4.4058     2.5007    -1.4737 N.am    
   9 C9             5.7097     2.5137     0.5954 C.3     
  10 C10            4.7856     1.4805    -2.2684 C.2     
  11 C11            4.9797     1.7078    -3.7454 C.3     
  12 O12            4.9711     0.3795    -1.7947 O.2     
  13 C13            5.8517     0.5906    -4.3230 C.3     
  14 C14            3.6183     1.7077    -4.4445 C.3     
  15 C15            3.8167     1.9734    -5.9401 C.3     
  16 N16            4.7688     0.9893    -6.4730 N.am    
  17 C17            6.0755     0.8436    -5.8172 C.3     
  18 S18            4.3764     0.0617    -7.7875 S.o2    
  19 C19            4.8952     0.9437    -9.2219 C.ar    
  20 C20            6.1534     0.7525    -9.7146 C.ar    
  21 C21            6.5642     1.4532   -10.8542 C.ar    
  22 C22            5.6751     2.3480   -11.4801 C.ar    
  23 C23            4.3970     2.5221   -10.9545 C.ar    
  24 C24            4.0174     1.8232    -9.8441 C.ar    
  25 C25            7.7997     1.4930   -11.6298 C.2     
  26 N26            7.6279     2.3348   -12.6086 N.2     
  27 N27            6.3410     2.8800   -12.5531 N.pl3   
  28 O28            5.1899    -1.1011    -7.7153 O.2     
  29 O29            2.9570     0.0154    -7.8365 O.2     
  30 C30            4.0733     3.8013    -2.0601 C.3     
  31 F31            8.5525     7.1892    -1.7730 F       
  32 H32            6.7895     6.8620     0.1254 H       
  33 H33            7.9216     5.6999    -3.8232 H       
  34 H34            5.9601     4.2172    -3.9470 H       
  35 H35            4.8265     5.3816    -0.0038 H       
  36 H36            3.6276     3.0309     0.4003 H       
  37 H37            3.9777     1.2984     0.1906 H       
  38 H38            6.3858     1.7367     0.2386 H       
  39 H39            6.0956     3.4915     0.3071 H       
  40 H40            5.6339     2.4588     1.6813 H       
  41 H41            5.4689     2.6689    -3.9037 H       
  42 H42            6.8125     0.5763    -3.8085 H       
  43 H43            5.3515    -0.3683    -4.1873 H       
  44 H44            3.1391     0.7382    -4.3077 H       
  45 H45            2.9895     2.4884    -4.0166 H       
  46 H46            2.8626     1.8764    -6.4582 H       
  47 H47            4.2121     2.9790    -6.0833 H       
  48 H48            6.6550     1.7571    -5.9503 H       
  49 H49            6.6117     0.0013    -6.2542 H       
  50 H50            6.8284     0.0644    -9.2275 H       
  51 H51            3.7066     3.2059   -11.4259 H       
  52 H52            3.0253     1.9612    -9.4403 H       
  53 H53            8.6963     0.9257   -11.4281 H       
  54 H54            5.9781     3.5303   -13.1746 H       
  55 H55            3.2449     4.2471    -1.5095 H       
  56 H56            3.7858     3.6669    -3.1029 H       
@<TRIPOS>BOND
   1    1    2 ar
   2    1    6 ar
   3    1   32 1
   4    2    3 ar
   5    2   31 1
   6    3    4 ar
   7    3   33 1
   8    4    5 ar
   9    4   34 1
  10    5    6 ar
  11    5   30 1
  12    6   35 1
  13    7    8 1
  14    7    9 1
  15    7   36 1
  16    7   37 1
  17    8   10 am
  18    8   30 1
  19    9   38 1
  20    9   39 1
  21    9   40 1
  22   10   11 1
  23   10   12 2
  24   11   13 1
  25   11   14 1
  26   11   41 1
  27   13   17 1
  28   13   42 1
  29   13   43 1
  30   14   15 1
  31   14   44 1
  32   14   45 1
  33   15   16 1
  34   15   46 1
  35   15   47 1
  36   16   17 1
  37   16   18 am
  38   17   48 1
  39   17   49 1
  40   18   19 1
  41   18   28 2
  42   18   29 2
  43   19   20 ar
  44   19   24 ar
  45   20   21 ar
  46   20   50 1
  47   21   22 ar
  48   21   25 1
  49   22   23 ar
  50   22   27 1
  51   23   24 ar
  52   23   51 1
  53   24   52 1
  54   25   26 2
  55   25   53 1
  56   26   27 1
  57   27   54 1
  58   30   55 1
  59   30   56 1

#	End of record

