#	Name: ASD05250070
#	Creating user name:	WinNT
#	Creation time:	15. 06. 2019 20:58

#	Modifying user name:	WinNT
#	Modification time:	15. 06. 2019 20:58

#	Program:	/corina/corina34_cracker 3.40 0067  02.08.2006

@<TRIPOS>MOLECULE
ASD05250070
  37   38    0    0    0
SMALL
NO_CHARGES


@<TRIPOS>ATOM
   1 C1            -0.0167     1.3834     0.0096 C.ar    
   2 C2             0.0021    -0.0041     0.0020 C.ar    
   3 C3            -1.1874    -0.7187     0.0100 C.ar    
   4 C4            -2.3996    -0.0497     0.0252 C.ar    
   5 C5            -2.4238     1.3468     0.0329 C.ar    
   6 C6            -1.2238     2.0616     0.0306 C.ar    
   7 O7             1.1515     2.0778     0.0022 O.3     
   8 O8            -1.1625    -2.0775     0.0025 O.3     
   9 C9            -3.7116     2.0640     0.0486 C.2     
  10 C10           -3.7323     3.4061     0.0560 C.2     
  11 C11           -5.0200     4.1232     0.0717 C.ar    
  12 C12           -5.0455     5.5203     0.0794 C.ar    
  13 C13           -6.2542     6.1844     0.0942 C.ar    
  14 C14           -7.4397     5.4707     0.1017 C.ar    
  15 C15           -7.4222     4.0870     0.0946 C.ar    
  16 C16           -6.2212     3.4092     0.0731 C.ar    
  17 C17           -8.7562     6.2038     0.1183 C.3     
  18 C18           -9.5647     5.8285    -1.1253 C.3     
  19 C19           -9.5406     5.8151     1.3731 C.3     
  20 H20            0.9456    -0.5295    -0.0105 H       
  21 H21           -3.3248    -0.6067     0.0306 H       
  22 H22           -1.2374     3.1415     0.0369 H       
  23 H23            1.4812     2.2835    -0.8833 H       
  24 H24           -1.1465    -2.4755     0.8836 H       
  25 H25           -4.6384     1.5095     0.0541 H       
  26 H26           -2.8055     3.9606     0.0505 H       
  27 H27           -4.1211     6.0786     0.0743 H       
  28 H28           -6.2755     7.2642     0.1002 H       
  29 H29           -8.3513     3.5365     0.1013 H       
  30 H30           -6.2090     2.3293     0.0675 H       
  31 H31           -8.5736     7.2784     0.1223 H       
  32 H32           -9.7472     4.7539    -1.1293 H       
  33 H33          -10.5169     6.3588    -1.1133 H       
  34 H34           -9.0058     6.1054    -2.0192 H       
  35 H35          -10.4929     6.3454     1.3851 H       
  36 H36           -9.7232     4.7405     1.3690 H       
  37 H37           -8.9647     6.0825     2.2590 H       
@<TRIPOS>BOND
   1    1    2 ar
   2    1    7 1
   3    1    6 ar
   4    2    3 ar
   5    2   20 1
   6    3    4 ar
   7    3    8 1
   8    4    5 ar
   9    4   21 1
  10    5    6 ar
  11    5    9 1
  12    6   22 1
  13    7   23 1
  14    8   24 1
  15    9   10 2
  16    9   25 1
  17   10   11 1
  18   10   26 1
  19   11   12 ar
  20   11   16 ar
  21   12   13 ar
  22   12   27 1
  23   13   14 ar
  24   13   28 1
  25   14   15 ar
  26   14   17 1
  27   15   16 ar
  28   15   29 1
  29   16   30 1
  30   17   18 1
  31   17   19 1
  32   17   31 1
  33   18   32 1
  34   18   33 1
  35   18   34 1
  36   19   35 1
  37   19   36 1
  38   19   37 1

#	End of record

