#	Name: ASD03090737
#	Creating user name:	WinNT
#	Creation time:	15. 06. 2019 20:29

#	Modifying user name:	WinNT
#	Modification time:	15. 06. 2019 20:29

#	Program:	/corina/corina34_cracker 3.40 0067  02.08.2006

@<TRIPOS>MOLECULE
ASD03090737
  36   37    0    0    0
SMALL
NO_CHARGES


@<TRIPOS>ATOM
   1 N1            -0.0162     1.3436     0.0094 N.am    
   2 C2            -0.2053     0.1129    -0.5066 C.2     
   3 O3             0.6886    -0.4304    -1.1265 O.2     
   4 N4            -1.3853    -0.5155    -0.3355 N.am    
   5 S5            -3.0149    -2.7127    -0.7385 S.3     
   6 C6            -1.5804    -1.7853    -0.8679 C.2     
   7 N7            -0.7052    -2.4648    -1.5458 N.2     
   8 N8            -1.0439    -3.6083    -1.9599 N.2     
   9 C9            -2.2432    -3.9990    -1.6667 C.2     
  10 C10           -2.8672    -5.3165    -2.0489 C.3     
  11 F11           -1.9120    -6.1185    -2.6826 F       
  12 F12           -3.3309    -5.9640    -0.8987 F       
  13 F13           -3.9380    -5.0900    -2.9203 F       
  14 C14            1.2484     1.9477    -0.0622 C.ar    
  15 C15            1.3533     3.3282    -0.2093 C.ar    
  16 C16            2.6017     3.9249    -0.2800 C.ar    
  17 C17            3.7468     3.1484    -0.2039 C.ar    
  18 C18            3.6436     1.7678    -0.0564 C.ar    
  19 C19            2.3942     1.1703     0.0193 C.ar    
  20 O20            4.9725     3.7353    -0.2739 O.3     
  21 C21            5.0039     5.1558    -0.4258 C.3     
  22 O22            0.2293     4.0916    -0.2841 O.3     
  23 C23            0.4111     5.5009    -0.4347 C.3     
  24 N24            4.8024     0.9822     0.0206 N.pl3   
  25 H25           -0.7552     1.8133     0.4268 H       
  26 H26           -2.0984    -0.0821     0.1590 H       
  27 H27            2.6823     4.9957    -0.3948 H       
  28 H28            2.3135     0.0998     0.1375 H       
  29 H29            4.5034     5.6231     0.4224 H       
  30 H30            6.0392     5.4939    -0.4681 H       
  31 H31            4.4929     5.4341    -1.3475 H       
  32 H32           -0.5620     5.9899    -0.4812 H       
  33 H33            0.9719     5.8879     0.4161 H       
  34 H34            0.9621     5.7000    -1.3538 H       
  35 H35            5.6761     1.4006    -0.0290 H       
  36 H36            4.7304     0.0204     0.1234 H       
@<TRIPOS>BOND
   1    1    2 am
   2    1   14 1
   3    1   25 1
   4    2    3 2
   5    2    4 am
   6    4    6 1
   7    4   26 1
   8    5    6 1
   9    5    9 1
  10    6    7 2
  11    7    8 1
  12    8    9 2
  13    9   10 1
  14   10   11 1
  15   10   12 1
  16   10   13 1
  17   14   15 ar
  18   14   19 ar
  19   15   16 ar
  20   15   22 1
  21   16   17 ar
  22   16   27 1
  23   17   18 ar
  24   17   20 1
  25   18   19 ar
  26   18   24 1
  27   19   28 1
  28   20   21 1
  29   21   29 1
  30   21   30 1
  31   21   31 1
  32   22   23 1
  33   23   32 1
  34   23   33 1
  35   23   34 1
  36   24   35 1
  37   24   36 1

#	End of record

