#	Name: ASD01883448
#	Creating user name:	WinNT
#	Creation time:	15. 06. 2019 19:46

#	Modifying user name:	WinNT
#	Modification time:	15. 06. 2019 19:46

#	Program:	/corina/corina34_cracker 3.40 0067  02.08.2006

@<TRIPOS>MOLECULE
ASD01883448
  63   64    0    0    0
SMALL
NO_CHARGES


@<TRIPOS>ATOM
   1 N1            -0.0080     1.3271     0.0354 N.am    
   2 C2            -0.3623     0.6471    -1.0708 C.2     
   3 C3            -1.5938    -0.0487    -1.1070 C.2     
   4 C4            -2.4239    -0.0108     0.0261 C.2     
   5 C5            -1.9981     0.7175     1.1524 C.2     
   6 C6            -0.8092     1.3586     1.1319 C.2     
   7 O7             0.3768     0.6309    -2.0406 O.2     
   8 C8            -1.9868    -0.7769    -2.2757 C.1     
   9 N9            -3.6308    -0.6731     0.0341 N.pl3   
  10 C10           -4.8918     0.0702     0.1608 C.3     
  11 C11           -5.6944    -0.5154     1.3268 C.3     
  12 C12           -5.8707    -2.0207     1.1144 C.3     
  13 C13           -4.4985    -2.6976     1.0843 C.3     
  14 C14           -3.6827    -2.1362    -0.0901 C.3     
  15 C15            1.2701     2.0427     0.0594 C.3     
  16 C16            1.0645     3.4711    -0.4488 C.3     
  17 C17            2.3993     4.2185    -0.4237 C.3     
  18 C18            3.3655     3.5704    -1.4174 C.3     
  19 C19            2.1725     5.6808    -0.8126 C.3     
  20 N20           -6.6684    -2.5800     2.2139 N.3     
  21 C21           -7.3527    -3.8105     1.7949 C.3     
  22 C22           -8.1589    -4.3539     2.9463 C.ar    
  23 C23           -9.4717    -3.9575     3.1186 C.ar    
  24 C24          -10.2114    -4.4559     4.1750 C.ar    
  25 C25           -9.6382    -5.3510     5.0585 C.ar    
  26 C26           -8.3253    -5.7483     4.8856 C.ar    
  27 C27           -7.5872    -5.2533     3.8271 C.ar    
  28 C28           -7.7001    -6.7239     5.8492 C.3     
  29 F29           -8.6371    -7.0811     6.8247 F       
  30 F30           -7.2905    -7.8674     5.1550 F       
  31 F31           -6.5924    -6.1288     6.4623 F       
  32 N32           -2.2985    -1.3546    -3.2029 N.1     
  33 H33           -2.6200     0.7607     2.0343 H       
  34 H34           -0.4929     1.9141     2.0024 H       
  35 H35           -4.6785     1.1212     0.3555 H       
  36 H36           -5.4655    -0.0236    -0.7613 H       
  37 H37           -5.1602    -0.3399     2.2606 H       
  38 H38           -6.6729    -0.0372     1.3715 H       
  39 H39           -6.3831    -2.1964     0.1685 H       
  40 H40           -3.9756    -2.5016     2.0204 H       
  41 H41           -4.6258    -3.7726     0.9564 H       
  42 H42           -4.1593    -2.4118    -1.0309 H       
  43 H43           -2.6709    -2.5405    -0.0585 H       
  44 H44            1.6512     2.0716     1.0802 H       
  45 H45            1.9865     1.5287    -0.5814 H       
  46 H46            0.6835     3.4422    -1.4696 H       
  47 H47            0.3482     3.9852     0.1920 H       
  48 H48            2.8236     4.1709     0.5793 H       
  49 H49            4.3164     4.1029    -1.3995 H       
  50 H50            3.5271     2.5287    -1.1403 H       
  51 H51            2.9412     3.6181    -2.4203 H       
  52 H52            1.4842     6.1424    -0.1046 H       
  53 H53            3.1235     6.2132    -0.7946 H       
  54 H54            1.7483     5.7284    -1.8155 H       
  55 H55           -6.0962    -2.7440     3.0287 H       
  56 H56           -8.0162    -3.5905     0.9586 H       
  57 H57           -6.6138    -4.5506     1.4876 H       
  58 H58           -9.9196    -3.2580     2.4283 H       
  59 H59          -11.2370    -4.1456     4.3100 H       
  60 H60          -10.2158    -5.7399     5.8841 H       
  61 H61           -6.5616    -5.5636     3.6920 H       
  62 Cl62           9.3164    11.2132    11.8247 Cl      
  63 H63            9.3164    12.5832    11.8247 H       
@<TRIPOS>BOND
   1    1    2 am
   2    1   15 1
   3    1    6 1
   4    2    3 1
   5    2    7 2
   6    3    4 2
   7    3    8 1
   8    4    5 1
   9    4    9 1
  10    5    6 2
  11    5   33 1
  12    6   34 1
  13    8   32 3
  14    9   10 1
  15    9   14 1
  16   10   11 1
  17   10   35 1
  18   10   36 1
  19   11   12 1
  20   11   37 1
  21   11   38 1
  22   12   13 1
  23   12   20 1
  24   12   39 1
  25   13   14 1
  26   13   40 1
  27   13   41 1
  28   14   42 1
  29   14   43 1
  30   15   16 1
  31   15   44 1
  32   15   45 1
  33   16   17 1
  34   16   46 1
  35   16   47 1
  36   17   18 1
  37   17   19 1
  38   17   48 1
  39   18   49 1
  40   18   50 1
  41   18   51 1
  42   19   52 1
  43   19   53 1
  44   19   54 1
  45   20   21 1
  46   20   55 1
  47   21   22 1
  48   21   56 1
  49   21   57 1
  50   22   23 ar
  51   22   27 ar
  52   23   24 ar
  53   23   58 1
  54   24   25 ar
  55   24   59 1
  56   25   26 ar
  57   25   60 1
  58   26   27 ar
  59   26   28 1
  60   27   61 1
  61   28   29 1
  62   28   30 1
  63   28   31 1
  64   62   63 1

#	End of record

