#	Name: ASD09116361
#	Creating user name:	WinNT
#	Creation time:	15. 06. 2019 21:21

#	Modifying user name:	WinNT
#	Modification time:	15. 06. 2019 21:21

#	Program:	/corina/corina34_cracker 3.40 0067  02.08.2006

@<TRIPOS>MOLECULE
ASD09116361
  79   85    0    0    0
SMALL
NO_CHARGES


@<TRIPOS>ATOM
   1 N1            -0.0590     1.5275    -0.5290 N.2     
   2 N2            -0.0821     0.2489    -1.1090 N.pl3   
   3 C3             1.1948     1.9112    -0.4983 C.2     
   4 N4             1.9589     0.9473    -1.0254 N.2     
   5 C5             1.2028    -0.0629    -1.3988 C.2     
   6 N6             1.6429    -1.2353    -1.9831 N.pl3   
   7 C7            -1.2083    -0.5446    -1.3406 C.ar    
   8 N8             1.6572     3.1283     0.0023 N.pl3   
   9 C9             3.0333     3.3746     0.0833 C.ar    
  10 C10            3.5138     4.6735    -0.0243 C.ar    
  11 C11            3.9166     2.3212     0.2769 C.ar    
  12 C12            5.2745     2.5634     0.3578 C.ar    
  13 C13            5.7564     3.8596     0.2457 C.ar    
  14 C14            4.8720     4.9162     0.0561 C.ar    
  15 N15            7.1337     4.1049     0.3283 N.3     
  16 F16            5.3406     6.1786    -0.0536 F       
  17 N17           -1.1904    -1.4627    -2.2956 N.ar    
  18 N18           -2.1983    -2.2136    -2.5587 N.ar    
  19 C19           -3.3299    -2.1211    -1.8922 C.ar    
  20 C20           -3.4417    -1.1950    -0.8527 C.ar    
  21 C21           -2.3545    -0.3776    -0.5638 C.ar    
  22 C22           -4.5160    -2.9744    -2.2444 C.3     
  23 C23           -4.6861    -4.1158    -1.2477 C.3     
  24 C24           -4.5095    -3.6178     0.1846 C.3     
  25 C25           -5.2436    -2.3254     0.4128 C.ar    
  26 C26           -4.7000    -1.1360    -0.0772 C.ar    
  27 C27            7.6702     3.6637     1.6222 C.3     
  28 C28            9.1393     4.0772     1.7345 C.3     
  29 C29            9.9323     3.4422     0.5889 C.3     
  30 C30            9.3234     3.8792    -0.7464 C.3     
  31 C31            7.8489     3.4714    -0.7869 C.3     
  32 N32           11.3321     3.8825     0.6576 N.3     
  33 C33           12.1491     3.2003    -0.3557 C.3     
  34 C34           13.5791     3.7432    -0.3041 C.3     
  35 N35           14.1315     3.5343     1.0416 N.3     
  36 C36           13.3144     4.2166     2.0548 C.3     
  37 C37           11.8844     3.6737     2.0033 C.3     
  38 C38           15.5312     3.9746     1.1103 C.3     
  39 C39           -6.4377    -2.3009     1.1002 C.ar    
  40 C40           -7.0861    -1.0977     1.3186 C.ar    
  41 C41           -6.5409     0.0848     0.8526 C.ar    
  42 C42           -5.3488     0.0714     0.1546 C.ar    
  43 H43            2.5889    -1.3676    -2.1522 H       
  44 H44            1.0059    -1.9259    -2.2243 H       
  45 H45            1.0255     3.8040     0.2944 H       
  46 H46            2.8263     5.4934    -0.1711 H       
  47 H47            3.5422     1.3120     0.3646 H       
  48 H48            5.9610     1.7434     0.5088 H       
  49 H49           -2.3986     0.3609     0.2230 H       
  50 H50           -5.4147    -2.3577    -2.2387 H       
  51 H51           -4.3745    -3.3893    -3.2424 H       
  52 H52           -5.6828    -4.5428    -1.3584 H       
  53 H53           -3.9423    -4.8855    -1.4538 H       
  54 H54           -4.8919    -4.3711     0.8733 H       
  55 H55           -3.4483    -3.4641     0.3800 H       
  56 H56            7.1002     4.1257     2.4282 H       
  57 H57            7.5914     2.5791     1.6972 H       
  58 H58            9.2175     5.1627     1.6734 H       
  59 H59            9.5415     3.7359     2.6884 H       
  60 H60            9.8865     2.3564     0.6721 H       
  61 H61            9.4045     4.9615    -0.8465 H       
  62 H62            9.8571     3.3964    -1.5650 H       
  63 H63            7.7693     2.3877    -0.7005 H       
  64 H64            7.4087     3.7937    -1.7305 H       
  65 H65           12.1592     2.1292    -0.1537 H       
  66 H66           11.7272     3.3802    -1.3445 H       
  67 H67           14.1940     3.2181    -1.0351 H       
  68 H68           13.5720     4.8089    -0.5329 H       
  69 H69           13.7363     4.0367     3.0436 H       
  70 H70           13.3043     5.2877     1.8528 H       
  71 H71           11.2695     4.1987     2.7343 H       
  72 H72           11.8915     2.6080     2.2321 H       
  73 H73           15.5906     5.0359     0.8690 H       
  74 H74           15.9153     3.8088     2.1168 H       
  75 H75           16.1265     3.4058     0.3960 H       
  76 H76           -6.8677    -3.2207     1.4683 H       
  77 H77           -8.0228    -1.0822     1.8560 H       
  78 H78           -7.0484     1.0206     1.0344 H       
  79 H79           -4.9223     0.9948    -0.2084 H       
@<TRIPOS>BOND
   1    1    2 1
   2    1    3 2
   3    2    7 1
   4    2    5 1
   5    3    4 1
   6    3    8 1
   7    4    5 2
   8    5    6 1
   9    6   43 1
  10    6   44 1
  11    7   17 ar
  12    7   21 ar
  13    8    9 1
  14    8   45 1
  15    9   10 ar
  16    9   11 ar
  17   10   14 ar
  18   10   46 1
  19   11   12 ar
  20   11   47 1
  21   12   13 ar
  22   12   48 1
  23   13   14 ar
  24   13   15 1
  25   14   16 1
  26   15   27 1
  27   15   31 1
  28   17   18 ar
  29   18   19 ar
  30   19   20 ar
  31   19   22 1
  32   20   21 ar
  33   20   26 1
  34   21   49 1
  35   22   23 1
  36   22   50 1
  37   22   51 1
  38   23   24 1
  39   23   52 1
  40   23   53 1
  41   24   25 1
  42   24   54 1
  43   24   55 1
  44   25   26 ar
  45   25   39 ar
  46   26   42 ar
  47   27   28 1
  48   27   56 1
  49   27   57 1
  50   28   29 1
  51   28   58 1
  52   28   59 1
  53   29   30 1
  54   29   32 1
  55   29   60 1
  56   30   31 1
  57   30   61 1
  58   30   62 1
  59   31   63 1
  60   31   64 1
  61   32   33 1
  62   32   37 1
  63   33   34 1
  64   33   65 1
  65   33   66 1
  66   34   35 1
  67   34   67 1
  68   34   68 1
  69   35   36 1
  70   35   38 1
  71   36   37 1
  72   36   69 1
  73   36   70 1
  74   37   71 1
  75   37   72 1
  76   38   73 1
  77   38   74 1
  78   38   75 1
  79   39   40 ar
  80   39   76 1
  81   40   41 ar
  82   40   77 1
  83   41   42 ar
  84   41   78 1
  85   42   79 1

#	End of record

