#	Name: ASD09200038
#	Creating user name:	WinNT
#	Creation time:	15. 06. 2019 21:21

#	Modifying user name:	WinNT
#	Modification time:	15. 06. 2019 21:21

#	Program:	/corina/corina34_cracker 3.40 0067  02.08.2006

@<TRIPOS>MOLECULE
ASD09200038
  50   53    0    0    0
SMALL
NO_CHARGES


@<TRIPOS>ATOM
   1 N1            -0.0162     1.3436     0.0094 N.am    
   2 C2             0.0021    -0.0041     0.0020 C.2     
   3 S3             1.2791    -0.9037    -0.0145 S.o     
   4 C4             0.4646    -2.4792    -0.0155 C.2     
   5 C5            -0.8533    -2.1575    -0.0018 C.2     
   6 N6            -1.0696    -0.8036     0.0133 N.am    
   7 C7            -1.9359    -3.1558     0.0023 C.ar    
   8 C8            -1.6289    -4.5245    -0.0079 C.ar    
   9 C9            -2.6327    -5.4480    -0.0036 C.ar    
  10 C10           -3.9688    -5.0304     0.0103 C.ar    
  11 C11           -4.2769    -3.6649     0.0200 C.ar    
  12 C12           -3.2752    -2.7390     0.0221 C.ar    
  13 C13            1.2377     2.1093     0.0016 C.3     
  14 C14            1.1992     3.1065    -1.1607 C.3     
  15 C15           -0.0617     3.9665    -1.0481 C.3     
  16 C16           -1.3006     3.0725    -1.1375 C.3     
  17 C17           -1.2905     2.0749     0.0193 C.3     
  18 C18           -0.0593     4.7015     0.2938 C.3     
  19 N19           -0.0852     4.9462    -2.1424 N.3     
  20 C20           -5.0563    -6.0333     0.0144 C.ar    
  21 C21           -6.3910    -5.6203     0.0283 C.ar    
  22 C22           -7.4003    -6.5595     0.0321 C.ar    
  23 C23           -7.0930    -7.9114     0.0221 C.ar    
  24 C24           -5.7704    -8.3271     0.0088 C.ar    
  25 C25           -4.7528    -7.3969    -0.0014 C.ar    
  26 F26           -8.0862    -8.8273     0.0259 F       
  27 H27            1.7147    -0.7875    -1.2816 H       
  28 H28            0.9119    -3.4621    -0.0254 H       
  29 H29           -1.9682    -0.4386     0.0244 H       
  30 H30           -0.5982    -4.8470    -0.0193 H       
  31 H31           -2.3967    -6.5018    -0.0114 H       
  32 H32           -5.3082    -3.3444     0.0300 H       
  33 H33           -3.5132    -1.6856     0.0295 H       
  34 H34            1.3422     2.6490     0.9428 H       
  35 H35            2.0801     1.4297    -0.1278 H       
  36 H36            2.0807     3.7463    -1.1204 H       
  37 H37            1.1861     2.5635    -2.1057 H       
  38 H38           -2.1983     3.6881    -1.0807 H       
  39 H39           -1.2902     2.5298    -2.0827 H       
  40 H40           -2.1167     1.3733    -0.0959 H       
  41 H41           -1.3914     2.6095     0.9638 H       
  42 H42            0.8224     5.3393     0.3571 H       
  43 H43           -0.9573     5.3141     0.3741 H       
  44 H44           -0.0412     3.9749     1.1060 H       
  45 H45           -0.9088     5.5268    -2.0904 H       
  46 H46            0.7533     5.5074    -2.1434 H       
  47 H47           -6.6315    -4.5675     0.0365 H       
  48 H48           -8.4324    -6.2414     0.0432 H       
  49 H49           -5.5369    -9.3815     0.0014 H       
  50 H50           -3.7228    -7.7219    -0.0118 H       
@<TRIPOS>BOND
   1    1    2 am
   2    1   13 1
   3    1   17 1
   4    2    3 2
   5    2    6 am
   6    3    4 1
   7    3   27 1
   8    4    5 2
   9    4   28 1
  10    5    6 1
  11    5    7 1
  12    6   29 1
  13    7    8 ar
  14    7   12 ar
  15    8    9 ar
  16    8   30 1
  17    9   10 ar
  18    9   31 1
  19   10   11 ar
  20   10   20 1
  21   11   12 ar
  22   11   32 1
  23   12   33 1
  24   13   14 1
  25   13   34 1
  26   13   35 1
  27   14   15 1
  28   14   36 1
  29   14   37 1
  30   15   16 1
  31   15   18 1
  32   15   19 1
  33   16   17 1
  34   16   38 1
  35   16   39 1
  36   17   40 1
  37   17   41 1
  38   18   42 1
  39   18   43 1
  40   18   44 1
  41   19   45 1
  42   19   46 1
  43   20   21 ar
  44   20   25 ar
  45   21   22 ar
  46   21   47 1
  47   22   23 ar
  48   22   48 1
  49   23   24 ar
  50   23   26 1
  51   24   25 ar
  52   24   49 1
  53   25   50 1

#	End of record

