#	Name: ASD01910120
#	Creating user name:	WinNT
#	Creation time:	15. 06. 2019 19:55

#	Modifying user name:	WinNT
#	Modification time:	15. 06. 2019 19:55

#	Program:	/corina/corina34_cracker 3.40 0067  02.08.2006

@<TRIPOS>MOLECULE
ASD01910120
  50   53    0    0    0
SMALL
NO_CHARGES


@<TRIPOS>ATOM
   1 C1            -0.1218     0.5408    -0.3958 C.ar    
   2 C2            -0.3105    -0.8382    -0.4553 C.ar    
   3 C3            -1.5913    -1.3738    -0.3955 C.ar    
   4 C4            -2.6845    -0.5304    -0.2755 C.ar    
   5 C5            -2.4932     0.8668    -0.2146 C.ar    
   6 C6            -1.2122     1.3929    -0.2701 C.ar    
   7 C7            -4.1428    -0.7423    -0.1862 C.2     
   8 N8            -4.7445     0.4562    -0.0813 N.am    
   9 C9            -3.8421     1.4537    -0.0906 C.2     
  10 C10           -6.1925     0.6496     0.0292 C.3     
  11 C11           -6.6118     0.4932     1.4682 C.ar    
  12 C12           -6.4946     1.5625     2.3464 C.ar    
  13 C13           -6.8826     1.4148     3.6721 C.ar    
  14 C14           -7.3836     0.2059     4.1129 C.ar    
  15 C15           -7.4992    -0.8579     3.2354 C.ar    
  16 C16           -7.1185    -0.7122     1.9134 C.ar    
  17 N17           -5.9865     2.7857     1.8972 N.am    
  18 C18           -5.4668     3.6637     2.7778 C.2     
  19 C19           -5.0362     5.0050     2.3199 C.ar    
  20 O20           -5.3515     3.3550     3.9476 O.2     
  21 O21           -4.0949     2.6392    -0.0107 O.2     
  22 O22           -4.7053    -1.8188    -0.2049 O.2     
  23 Br23          -8.1851    -2.5121     3.8431 Br      
  24 C24           -4.4999     5.9079     3.2349 C.ar    
  25 C25           -4.1014     7.1594     2.7913 C.ar    
  26 C26           -4.2533     7.4639     1.4479 C.ar    
  27 C27           -4.7948     6.5164     0.5934 C.ar    
  28 N28           -5.1596     5.3345     1.0398 N.ar    
  29 O29            1.1342     1.0544    -0.4551 O.3     
  30 C30            1.2574     2.4765    -0.3887 C.3     
  31 O31            0.7623    -1.6629    -0.5730 O.3     
  32 C32            0.4988    -3.0663    -0.6287 C.3     
  33 H33           -1.7344    -2.4433    -0.4427 H       
  34 H34           -1.0626     2.4614    -0.2234 H       
  35 H35           -6.4531     1.6492    -0.3186 H       
  36 H36           -6.7059    -0.0929    -0.5817 H       
  37 H37           -6.7922     2.2446     4.3574 H       
  38 H38           -7.6850     0.0905     5.1435 H       
  39 H39           -7.2102    -1.5440     1.2307 H       
  40 H40           -6.0080     3.0020     0.9519 H       
  41 H41           -4.3963     5.6370     4.2752 H       
  42 H42           -3.6824     7.8808     3.4772 H       
  43 H43           -3.9530     8.4302     1.0705 H       
  44 H44           -4.9146     6.7504    -0.4541 H       
  45 H45            2.3101     2.7531    -0.4465 H       
  46 H46            0.7170     2.9273    -1.2211 H       
  47 H47            0.8390     2.8339     0.5522 H       
  48 H48            1.4393    -3.6091    -0.7223 H       
  49 H49           -0.0107    -3.3768     0.2835 H       
  50 H50           -0.1333    -3.2833    -1.4898 H       
@<TRIPOS>BOND
   1    1    2 ar
   2    1   29 1
   3    1    6 ar
   4    2    3 ar
   5    2   31 1
   6    3    4 ar
   7    3   33 1
   8    4    5 ar
   9    4    7 1
  10    5    6 ar
  11    5    9 1
  12    6   34 1
  13    7    8 am
  14    7   22 2
  15    8    9 am
  16    8   10 1
  17    9   21 2
  18   10   11 1
  19   10   35 1
  20   10   36 1
  21   11   12 ar
  22   11   16 ar
  23   12   13 ar
  24   12   17 1
  25   13   14 ar
  26   13   37 1
  27   14   15 ar
  28   14   38 1
  29   15   16 ar
  30   15   23 1
  31   16   39 1
  32   17   18 am
  33   17   40 1
  34   18   19 1
  35   18   20 2
  36   19   24 ar
  37   19   28 ar
  38   24   25 ar
  39   24   41 1
  40   25   26 ar
  41   25   42 1
  42   26   27 ar
  43   26   43 1
  44   27   28 ar
  45   27   44 1
  46   29   30 1
  47   30   45 1
  48   30   46 1
  49   30   47 1
  50   31   32 1
  51   32   48 1
  52   32   49 1
  53   32   50 1

#	End of record

