#	Name: ASD03180014
#	Creating user name:	WinNT
#	Creation time:	15. 06. 2019 20:33

#	Modifying user name:	WinNT
#	Modification time:	15. 06. 2019 20:33

#	Program:	/corina/corina34_cracker 3.40 0067  02.08.2006

@<TRIPOS>MOLECULE
ASD03180014
  58   60    0    0    0
SMALL
NO_CHARGES


@<TRIPOS>ATOM
   1 C1             7.4416     3.6393     1.7865 C.ar    
   2 C2             7.1988     4.9826     2.0350 C.ar    
   3 C3             5.9856     5.5454     1.6669 C.ar    
   4 C4             5.0222     4.7675     1.0540 C.ar    
   5 C5             5.2664     3.4292     0.8079 C.ar    
   6 C6             6.4753     2.8659     1.1735 C.ar    
   7 S7             4.0353     2.4396     0.0271 S.o2    
   8 O8             2.7819     3.0170     0.3661 O.2     
   9 N9             4.2134     2.6350    -1.6076 N.am    
  10 O10            4.3695     1.0874     0.3084 O.2     
  11 C11            3.4072     3.6305    -2.3185 C.3     
  12 C12            5.1771     1.8123    -2.3430 C.3     
  13 C13            4.4604     0.6531    -2.9861 C.ar    
  14 C14            4.1884     4.9132    -2.4431 C.2     
  15 N15            3.6425     5.9768    -3.0655 N.am    
  16 C16            4.4031     7.1357    -3.2691 C.ar    
  17 O17            5.3083     4.9884    -1.9834 O.2     
  18 C18            4.0104     0.7556    -4.2891 C.ar    
  19 C19            3.3529    -0.3077    -4.8790 C.ar    
  20 C20            3.1459    -1.4738    -4.1661 C.ar    
  21 C21            3.5968    -1.5767    -2.8633 C.ar    
  22 C22            4.2580    -0.5149    -2.2749 C.ar    
  23 C23            4.2260     7.8890    -4.4221 C.ar    
  24 C24            4.9754     9.0315    -4.6224 C.ar    
  25 C25            5.9056     9.4269    -3.6726 C.ar    
  26 C26            6.0839     8.6744    -2.5199 C.ar    
  27 C27            5.3300     7.5343    -2.3156 C.ar    
  28 O28            8.1479     5.7456     2.6384 O.3     
  29 Cl29           7.2487     9.1694    -1.3317 Cl      
  30 C30            8.7610     3.0261     2.1794 C.3     
  31 C31            7.8290     7.1204     2.8627 C.3     
  32 O32            6.6435    10.5519    -3.8710 O.3     
  33 C33            6.4083    11.2773    -5.0794 C.3     
  34 H34            5.7941     6.5907     1.8596 H       
  35 H35            4.0774     5.2052     0.7672 H       
  36 H36            6.6638     1.8202     0.9798 H       
  37 H37            3.1617     3.2565    -3.3125 H       
  38 H38            2.4881     3.8173    -1.7633 H       
  39 H39            5.6565     2.4158    -3.1137 H       
  40 H40            5.9330     1.4351    -1.6542 H       
  41 H41            2.7231     5.9400    -3.3724 H       
  42 H42            4.1721     1.6667    -4.8461 H       
  43 H43            3.0007    -0.2273    -5.8968 H       
  44 H44            2.6317    -2.3043    -4.6267 H       
  45 H45            3.4347    -2.4876    -2.3062 H       
  46 H46            4.6135    -0.5966    -1.2583 H       
  47 H47            3.5023     7.5812    -5.1623 H       
  48 H48            4.8374     9.6172    -5.5193 H       
  49 H49            5.4651     6.9512    -1.4166 H       
  50 H50            8.6929     2.6380     3.1957 H       
  51 H51            9.0017     2.2125     1.4952 H       
  52 H52            9.5426     3.7843     2.1316 H       
  53 H53            7.6254     7.6065     1.9087 H       
  54 H54            6.9481     7.1895     3.5011 H       
  55 H55            8.6702     7.6137     3.3497 H       
  56 H56            6.6173    10.6353    -5.9351 H       
  57 H57            5.3677    11.5999    -5.1129 H       
  58 H58            7.0605    12.1501    -5.1121 H       
@<TRIPOS>BOND
   1    1    2 ar
   2    1    6 ar
   3    1   30 1
   4    2    3 ar
   5    2   28 1
   6    3    4 ar
   7    3   34 1
   8    4    5 ar
   9    4   35 1
  10    5    6 ar
  11    5    7 1
  12    6   36 1
  13    7    8 2
  14    7    9 am
  15    7   10 2
  16    9   11 1
  17    9   12 1
  18   11   14 1
  19   11   37 1
  20   11   38 1
  21   12   13 1
  22   12   39 1
  23   12   40 1
  24   13   18 ar
  25   13   22 ar
  26   14   15 am
  27   14   17 2
  28   15   16 1
  29   15   41 1
  30   16   23 ar
  31   16   27 ar
  32   18   19 ar
  33   18   42 1
  34   19   20 ar
  35   19   43 1
  36   20   21 ar
  37   20   44 1
  38   21   22 ar
  39   21   45 1
  40   22   46 1
  41   23   24 ar
  42   23   47 1
  43   24   25 ar
  44   24   48 1
  45   25   26 ar
  46   25   32 1
  47   26   27 ar
  48   26   29 1
  49   27   49 1
  50   28   31 1
  51   30   50 1
  52   30   51 1
  53   30   52 1
  54   31   53 1
  55   31   54 1
  56   31   55 1
  57   32   33 1
  58   33   56 1
  59   33   57 1
  60   33   58 1

#	End of record

