#	Name: ASD02448113
#	Creating user name:	WinNT
#	Creation time:	15. 06. 2019 20:21

#	Modifying user name:	WinNT
#	Modification time:	15. 06. 2019 20:21

#	Program:	/corina/corina34_cracker 3.40 0067  02.08.2006

@<TRIPOS>MOLECULE
ASD02448113
  81   87    0    0    0
SMALL
NO_CHARGES


@<TRIPOS>ATOM
   1 C1            -0.0094     1.3526     0.0412 C.ar    
   2 C2             0.0091    -0.0275     0.0179 C.ar    
   3 C3             1.2205    -0.7057     0.0111 C.ar    
   4 C4             2.4137     0.0037     0.0277 C.ar    
   5 C5             2.3961     1.3839     0.0505 C.ar    
   6 C6             1.1843     2.0628     0.0573 C.ar    
   7 N7             1.1661     3.4606     0.0804 N.am    
   8 C8             0.1061     4.3575    -0.3983 C.3     
   9 C9             0.4731     5.7916    -0.1920 C.2     
  10 N10            1.6708     5.9885     0.3771 N.am    
  11 S11            2.3402     4.4918     0.6648 S.o2    
  12 O12           -0.2555     6.7059    -0.5145 O.2     
  13 O13            2.3948     4.3209     2.0744 O.2     
  14 O14            3.4653     4.3637    -0.1937 O.2     
  15 N15            1.2388    -2.1089    -0.0121 N.pl3   
  16 C16            0.6283    -2.9432     0.8847 C.2     
  17 C17            1.8611    -2.8912    -0.9324 C.2     
  18 N18            1.6583    -4.1428    -0.6282 N.2     
  19 C19            0.9024    -4.2131     0.4863 C.2     
  20 C20            0.4508    -5.4561     1.1584 C.ar    
  21 C21            0.8061    -6.7001     0.6403 C.ar    
  22 C22           -0.3256    -5.3841     2.3135 C.ar    
  23 C23           -0.7430    -6.5437     2.9346 C.ar    
  24 C24           -0.3922    -7.7758     2.4127 C.ar    
  25 C25            0.3830    -7.8532     1.2696 C.ar    
  26 C26            2.6556    -2.3936    -2.1123 C.3     
  27 C27            1.7738    -2.3612    -3.3339 C.ar    
  28 C28            0.9814    -1.2550    -3.5827 C.ar    
  29 C29            1.7640    -3.4353    -4.2054 C.ar    
  30 C30            0.9587    -3.4108    -5.3260 C.ar    
  31 C31            0.1545    -2.3013    -5.5786 C.ar    
  32 C32            0.1722    -1.2198    -4.7002 C.ar    
  33 C33           -0.7130    -2.2690    -6.7821 C.ar    
  34 C34           -1.5172    -1.1595    -7.0348 C.ar    
  35 C35           -0.7221    -3.3456    -7.6666 C.ar    
  36 C36           -1.5310    -3.3103    -8.7844 C.ar    
  37 C37           -2.3312    -2.2086    -9.0276 C.ar    
  38 C38           -2.3222    -1.1348    -8.1556 C.ar    
  39 C39           -3.2115    -2.1754   -10.2503 C.3     
  40 C40           -0.8506    -9.0385     3.0957 C.3     
  41 F41           -2.0874    -9.4295     2.5716 F       
  42 F42            0.0887   -10.0526     2.8803 F       
  43 F43           -0.9787    -8.8056     4.4692 F       
  44 C44           -4.6741    -2.0391    -9.8221 C.3     
  45 C45           -5.5678    -2.0054   -11.0635 C.3     
  46 C46           -5.1795    -0.8124   -11.9393 C.3     
  47 C47           -3.7170    -0.9487   -12.3674 C.3     
  48 C48           -2.8232    -0.9824   -11.1260 C.3     
  49 H49           -0.9517     1.8802     0.0424 H       
  50 H50           -0.9189    -0.5798     0.0054 H       
  51 H51            3.3559    -0.5242     0.0230 H       
  52 H52            3.3244     1.9357     0.0637 H       
  53 H53           -0.0584     4.1804    -1.4612 H       
  54 H54           -0.8148     4.1431     0.1440 H       
  55 H55            2.0726     6.8463     0.5858 H       
  56 H56            0.0423    -2.6492     1.7430 H       
  57 H57            1.4110    -6.7616    -0.2523 H       
  58 H58           -0.5998    -4.4227     2.7221 H       
  59 H59           -1.3444    -6.4892     3.8300 H       
  60 H60            0.6537    -8.8178     0.8662 H       
  61 H61            3.0250    -1.3894    -1.9041 H       
  62 H62            3.4986    -3.0612    -2.2903 H       
  63 H63            0.9956    -0.4175    -2.9009 H       
  64 H64            2.3880    -4.2946    -4.0088 H       
  65 H65            0.9521    -4.2498    -6.0059 H       
  66 H66           -0.4494    -0.3576    -4.8911 H       
  67 H67           -1.5109    -0.3206    -6.3546 H       
  68 H68           -0.0971    -4.2060    -7.4781 H       
  69 H69           -1.5388    -4.1442    -9.4706 H       
  70 H70           -2.9493    -0.2773    -8.3501 H       
  71 H71           -3.0830    -3.0983   -10.8157 H       
  72 H72           -4.9507    -2.8890    -9.1982 H       
  73 H73           -4.8027    -1.1161    -9.2567 H       
  74 H74           -5.4393    -2.9283   -11.6290 H       
  75 H75           -6.6098    -1.9083   -10.7585 H       
  76 H76           -5.8162    -0.7884   -12.8236 H       
  77 H77           -5.3081     0.1105   -11.3738 H       
  78 H78           -3.5884    -1.8716   -12.9328 H       
  79 H79           -3.4403    -0.0988   -12.9913 H       
  80 H80           -2.9518    -0.0595   -10.5606 H       
  81 H81           -1.7813    -1.0795   -11.4310 H       
@<TRIPOS>BOND
   1    1    2 ar
   2    1    6 ar
   3    1   49 1
   4    2    3 ar
   5    2   50 1
   6    3    4 ar
   7    3   15 1
   8    4    5 ar
   9    4   51 1
  10    5    6 ar
  11    5   52 1
  12    6    7 1
  13    7    8 1
  14    7   11 am
  15    8    9 1
  16    8   53 1
  17    8   54 1
  18    9   10 am
  19    9   12 2
  20   10   11 am
  21   10   55 1
  22   11   13 2
  23   11   14 2
  24   15   16 1
  25   15   17 1
  26   16   19 2
  27   16   56 1
  28   17   18 2
  29   17   26 1
  30   18   19 1
  31   19   20 1
  32   20   21 ar
  33   20   22 ar
  34   21   25 ar
  35   21   57 1
  36   22   23 ar
  37   22   58 1
  38   23   24 ar
  39   23   59 1
  40   24   25 ar
  41   24   40 1
  42   25   60 1
  43   26   27 1
  44   26   61 1
  45   26   62 1
  46   27   28 ar
  47   27   29 ar
  48   28   32 ar
  49   28   63 1
  50   29   30 ar
  51   29   64 1
  52   30   31 ar
  53   30   65 1
  54   31   32 ar
  55   31   33 1
  56   32   66 1
  57   33   34 ar
  58   33   35 ar
  59   34   38 ar
  60   34   67 1
  61   35   36 ar
  62   35   68 1
  63   36   37 ar
  64   36   69 1
  65   37   39 1
  66   37   38 ar
  67   38   70 1
  68   39   44 1
  69   39   48 1
  70   39   71 1
  71   40   41 1
  72   40   42 1
  73   40   43 1
  74   44   45 1
  75   44   72 1
  76   44   73 1
  77   45   46 1
  78   45   74 1
  79   45   75 1
  80   46   47 1
  81   46   76 1
  82   46   77 1
  83   47   48 1
  84   47   78 1
  85   47   79 1
  86   48   80 1
  87   48   81 1

#	End of record

