#	Name: ASD00960053
#	Creating user name:	WinNT
#	Creation time:	15. 06. 2019 18:53

#	Modifying user name:	WinNT
#	Modification time:	15. 06. 2019 18:53

#	Program:	/corina/corina34_cracker 3.40 0067  02.08.2006

@<TRIPOS>MOLECULE
ASD00960053
  40   42    0    0    0
SMALL
NO_CHARGES


@<TRIPOS>ATOM
   1 C1            -0.1520     1.5339    -0.2246 C.3     
   2 C2            -0.1285    -0.0111    -0.2212 C.3     
   3 C3            -0.6716    -0.3917     1.1740 C.3     
   4 O4            -1.4616     0.7452     1.5852 O.3     
   5 C5            -0.7066     1.9039     1.1690 C.3     
   6 C6            -1.6196     3.1277     1.0712 C.3     
   7 C7            -1.5337    -1.6243     1.0830 C.2     
   8 C8            -1.0799    -2.8970     1.1136 C.2     
   9 N9            -2.8851    -1.6270     0.9638 N.pl3   
  10 C10           -3.3233    -2.9263     0.9093 C.2     
  11 C11           -2.1979    -3.7549     1.0022 C.2     
  12 N12           -3.8384    -0.6005     0.8925 N.2     
  13 C13           -5.1067    -0.8923     0.7774 C.2     
  14 N14           -5.5424    -2.1473     0.7237 N.2     
  15 C15           -4.7071    -3.1714     0.7836 C.2     
  16 O16           -2.0871     3.4786     2.3751 O.3     
  17 N17           -5.1845    -4.4665     0.7258 N.pl3   
  18 C18           -2.1825    -5.2205     0.9871 C.2     
  19 S19           -1.9664    -6.0590    -0.4898 S.2     
  20 N20           -2.3384    -5.9079     2.1358 N.am    
  21 C21           -1.0388    -0.5635    -1.3198 C.3     
  22 O22            1.1681     2.0544    -0.3925 O.3     
  23 *23            1.2140     3.2995    -1.0525 Du      
  24 O24            1.2065    -0.4918    -0.3901 O.3     
  25 *25            1.8038    -0.1098    -1.6089 Du      
  26 H26           -0.8104     1.9041    -1.0105 H       
  27 H27            0.1513    -0.5537     1.8703 H       
  28 H28            0.1110     2.0939     1.8645 H       
  29 H29           -1.0627     3.9635     0.6477 H       
  30 H30           -2.4703     2.8960     0.4303 H       
  31 H31           -0.0485    -3.2035     1.2060 H       
  32 H32           -5.8250    -0.0875     0.7244 H       
  33 H33           -2.6728     4.2479     2.3891 H       
  34 H34           -6.1403    -4.6318     0.7331 H       
  35 H35           -4.5639    -5.2104     0.6778 H       
  36 H36           -2.4608    -5.4329     2.9725 H       
  37 H37           -2.3282    -6.8778     2.1257 H       
  38 H38           -0.6795    -0.2275    -2.2925 H       
  39 H39           -1.0296    -1.6529    -1.2856 H       
  40 H40           -2.0559    -0.2037    -1.1640 H       
@<TRIPOS>BOND
   1    1    2 1
   2    1   22 1
   3    1    5 1
   4    1   26 1
   5    2   21 1
   6    2   24 1
   7    2    3 1
   8    3    4 1
   9    3    7 1
  10    3   27 1
  11    4    5 1
  12    5    6 1
  13    5   28 1
  14    6   16 1
  15    6   29 1
  16    6   30 1
  17    7    8 2
  18    7    9 1
  19    8   11 1
  20    8   31 1
  21    9   10 1
  22    9   12 1
  23   10   11 2
  24   10   15 1
  25   11   18 1
  26   12   13 2
  27   13   14 1
  28   13   32 1
  29   14   15 2
  30   15   17 1
  31   16   33 1
  32   17   34 1
  33   17   35 1
  34   18   19 2
  35   18   20 am
  36   20   36 1
  37   20   37 1
  38   21   38 1
  39   21   39 1
  40   21   40 1
  41   22   23 1
  42   24   25 1

#	End of record

