#	Name: ASD01871016
#	Creating user name:	WinNT
#	Creation time:	15. 06. 2019 19:39

#	Modifying user name:	WinNT
#	Modification time:	15. 06. 2019 19:39

#	Program:	/corina/corina34_cracker 3.40 0067  02.08.2006

@<TRIPOS>MOLECULE
ASD01871016
  27   29    0    0    0
SMALL
NO_CHARGES


@<TRIPOS>ATOM
   1 C1            -0.0157     1.3049     0.0092 C.2     
   2 N2             0.0021    -0.0041     0.0020 N.2     
   3 S3            -1.6269    -0.4874     0.0156 S.3     
   4 C4            -2.2505     1.1182     0.0304 C.2     
   5 N5            -1.1944     1.8982     0.0292 N.2     
   6 O6            -3.5514     1.4952     0.0448 O.3     
   7 C7            -4.4967     0.5218     0.0488 C.ar    
   8 C8            -5.8410     0.8691     0.0634 C.ar    
   9 N9            -4.1286    -0.7489     0.0332 N.ar    
  10 C10           -5.0154    -1.7268     0.0359 C.ar    
  11 C11           -6.3708    -1.4534     0.0554 C.ar    
  12 C12           -6.7964    -0.1331     0.0668 C.ar    
  13 C13            1.2427     2.0921     0.0014 C.2     
  14 C14            2.5510     1.5703    -0.0144 C.2     
  15 N15            3.3880     2.5736    -0.0168 N.2     
  16 N16            2.6538     3.7657    -0.0027 N.pl3   
  17 C17            1.3425     3.4530     0.0023 C.2     
  18 Cl18          -4.4735    -3.3759     0.0143 Cl      
  19 C19            2.9209     0.1095    -0.0259 C.3     
  20 F20            3.0222    -0.3355    -1.3484 F       
  21 F21            4.1491    -0.0658     0.6205 F       
  22 F22            1.9346    -0.6266     0.6394 F       
  23 H23           -6.1376     1.9075     0.0723 H       
  24 H24           -7.0902    -2.2589     0.0575 H       
  25 H25           -7.8491     0.1076     0.0820 H       
  26 H26            3.0247     4.6620    -0.0012 H       
  27 H27            0.5200     4.1528     0.0125 H       
@<TRIPOS>BOND
   1    1    2 2
   2    1   13 1
   3    1    5 1
   4    2    3 1
   5    3    4 1
   6    4    5 2
   7    4    6 1
   8    6    7 1
   9    7    8 ar
  10    7    9 ar
  11    8   12 ar
  12    8   23 1
  13    9   10 ar
  14   10   11 ar
  15   10   18 1
  16   11   12 ar
  17   11   24 1
  18   12   25 1
  19   13   14 1
  20   13   17 2
  21   14   15 2
  22   14   19 1
  23   15   16 1
  24   16   17 1
  25   16   26 1
  26   17   27 1
  27   19   20 1
  28   19   21 1
  29   19   22 1

#	End of record

