#	Name: ASD01320026
#	Creating user name:	WinNT
#	Creation time:	15. 06. 2019 19:15

#	Modifying user name:	WinNT
#	Modification time:	15. 06. 2019 19:15

#	Program:	/corina/corina34_cracker 3.40 0067  02.08.2006

@<TRIPOS>MOLECULE
ASD01320026
  48   50    0    0    0
SMALL
NO_CHARGES


@<TRIPOS>ATOM
   1 C1             0.2077     1.0073     1.6569 C.ar    
   2 C2             0.1438    -0.2399     1.0578 C.ar    
   3 C3             1.2733    -0.7902     0.4650 C.ar    
   4 C4             2.4657    -0.0964     0.4707 C.ar    
   5 C5             2.5355     1.1623     1.0739 C.ar    
   6 C6             1.3953     1.7108     1.6683 C.ar    
   7 C7             3.8081     1.9093     1.0838 C.2     
   8 N8             4.9059     1.3778     0.5104 N.am    
   9 C9             6.0682     2.0601     0.5195 C.2     
  10 N10            7.1660     1.5286    -0.0539 N.am    
  11 C11            8.3414     2.2860    -0.1529 C.ar    
  12 C12            8.2704     3.6569    -0.3458 C.ar    
  13 C13            9.4327     4.4031    -0.4428 C.ar    
  14 C14           10.6667     3.7831    -0.3481 C.ar    
  15 C15           10.7446     2.4159    -0.1558 C.ar    
  16 C16            9.5851     1.6630    -0.0519 C.ar    
  17 F17           -1.0211    -0.9240     1.0501 F       
  18 F18            1.2040    -2.0072    -0.1176 F       
  19 Cl19           1.4729     3.2740     2.4193 Cl      
  20 O20            3.8662     3.0038     1.6091 O.2     
  21 O21            6.1263     3.1547     1.0448 O.2     
  22 N22            9.6626     0.2782     0.1430 N.3     
  23 F23            9.3623     5.7391    -0.6307 F       
  24 C24           10.3781    -0.3698    -0.9636 C.3     
  25 C25           10.3172    -1.8893    -0.7920 C.3     
  26 C26           10.9543    -2.2728     0.5465 C.3     
  27 C27           10.2214    -1.5470     1.6781 C.3     
  28 C28           10.2851    -0.0375     1.4349 C.3     
  29 C29           10.8437    -3.7621     0.7485 C.2     
  30 O30           11.3378    -4.3269     1.8614 O.3     
  31 O31           10.3102    -4.4477    -0.0913 O.2     
  32 H32           -0.6747     1.4322     2.1123 H       
  33 H33            3.3435    -0.5253     0.0103 H       
  34 H34            4.8595     0.5043     0.0913 H       
  35 H35            7.1428     0.6220    -0.3981 H       
  36 H36            7.3088     4.1428    -0.4206 H       
  37 H37           11.5710     4.3686    -0.4250 H       
  38 H38           11.7088     1.9350    -0.0827 H       
  39 H39            9.9125    -0.0921    -1.9093 H       
  40 H40           11.4188    -0.0456    -0.9625 H       
  41 H41            9.2774    -2.2158    -0.8070 H       
  42 H42           10.8617    -2.3694    -1.6051 H       
  43 H43           12.0046    -1.9812     0.5468 H       
  44 H44            9.1801    -1.8682     1.7021 H       
  45 H45           10.6975    -1.7827     2.6299 H       
  46 H46           11.3262     0.2852     1.4249 H       
  47 H47            9.7519     0.4815     2.2314 H       
  48 H48           11.2433    -5.2856     1.9463 H       
@<TRIPOS>BOND
   1    1    2 ar
   2    1    6 ar
   3    1   32 1
   4    2    3 ar
   5    2   17 1
   6    3    4 ar
   7    3   18 1
   8    4    5 ar
   9    4   33 1
  10    5    6 ar
  11    5    7 1
  12    6   19 1
  13    7    8 am
  14    7   20 2
  15    8    9 am
  16    8   34 1
  17    9   10 am
  18    9   21 2
  19   10   11 1
  20   10   35 1
  21   11   12 ar
  22   11   16 ar
  23   12   13 ar
  24   12   36 1
  25   13   14 ar
  26   13   23 1
  27   14   15 ar
  28   14   37 1
  29   15   16 ar
  30   15   38 1
  31   16   22 1
  32   22   24 1
  33   22   28 1
  34   24   25 1
  35   24   39 1
  36   24   40 1
  37   25   26 1
  38   25   41 1
  39   25   42 1
  40   26   27 1
  41   26   29 1
  42   26   43 1
  43   27   28 1
  44   27   44 1
  45   27   45 1
  46   28   46 1
  47   28   47 1
  48   29   30 1
  49   29   31 2
  50   30   48 1

#	End of record

