#	Name: ASD08170062
#	Creating user name:	WinNT
#	Creation time:	15. 06. 2019 21:17

#	Modifying user name:	WinNT
#	Modification time:	15. 06. 2019 21:17

#	Program:	/corina/corina34_cracker 3.40 0067  02.08.2006

@<TRIPOS>MOLECULE
ASD08170062
  99  102    0    0    0
SMALL
NO_CHARGES


@<TRIPOS>ATOM
   1 N1            -0.0150     1.2583     0.0090 N.2     
   2 N2             0.0021    -0.0041     0.0020 N.2     
   3 C3             1.1271     1.8769     0.0014 C.2     
   4 S4             2.3826     0.7116    -0.0169 S.3     
   5 C5             1.1681    -0.5677    -0.0121 C.2     
   6 C6             1.4387    -2.0502    -0.0227 C.3     
   7 C7             1.5165    -2.5442    -1.4687 C.3     
   8 C8             2.1699    -6.2152    -3.4347 C.3     
   9 C9             2.2167    -6.5408    -4.9053 C.2     
  10 N10            3.2694    -6.5184    -5.6596 N.2     
  11 S11            0.8491    -7.0282    -5.9071 S.3     
  12 C12            1.9000    -7.1354    -7.2557 C.2     
  13 N13            3.1017    -6.8250    -6.8728 N.2     
  14 N14            1.5289    -7.4992    -8.5457 N.am    
  15 C15            2.4537    -7.5464    -9.5250 C.2     
  16 O16            3.6096    -7.2716    -9.2812 O.2     
  17 C17            2.0516    -7.9407   -10.9228 C.3     
  18 N18            1.3017     3.2566     0.0067 N.am    
  19 C19            0.2284     4.0717     0.0214 C.2     
  20 C20            0.4176     5.5667     0.0272 C.3     
  21 O21           -0.8897     3.6019     0.0299 O.2     
  22 C22            1.8986    -4.7206    -3.2516 C.3     
  23 C23            3.2807    -7.9145   -11.8336 C.3     
  24 C24           -0.9494     6.2538     0.0441 C.3     
  25 S25            1.8422    -4.3286    -1.4814 S.3     
  26 C26           -1.6674     5.9314     1.3583 C.3     
  27 C27            4.2757    -8.9877   -11.3806 C.3     
  28 N28           -2.9179     6.7007     1.4150 N.am    
  29 C29           -2.8609     8.1565     1.2248 C.3     
  30 C30           -2.1295     8.4539    -0.0880 C.3     
  31 C31           -0.7614     7.7682    -0.0717 C.3     
  32 C32            2.8538    -8.1967   -13.2759 C.3     
  33 C33            4.0778    -8.1384   -14.1927 C.3     
  34 C34            5.0818    -9.2140   -13.7664 C.3     
  35 N35            5.3872    -9.0373   -12.3402 N.am    
  36 C36           -4.0949     6.0827     1.6370 C.2     
  37 O37           -5.2331     6.8002     1.6865 O.3     
  38 O38           -4.1288     4.8781     1.7924 O.2     
  39 C39           -6.4635     6.0684     1.9292 C.3     
  40 C40           -6.3719     5.3494     3.2766 C.3     
  41 C41           -7.6415     7.0445     1.9511 C.3     
  42 C42           -6.6736     5.0404     0.8157 C.3     
  43 C43            6.6626    -8.9224   -11.9201 C.2     
  44 O44            6.9021    -8.7766   -10.7378 O.2     
  45 O45            7.6714    -8.9691   -12.8106 O.3     
  46 C46            9.0194    -8.8387   -12.2869 C.3     
  47 C47            9.2933    -9.9714   -11.2956 C.3     
  48 C48           10.0236    -8.9151   -13.4388 C.3     
  49 C49            9.1618    -7.4921   -11.5747 C.3     
  50 H50            2.3843    -2.2506     0.4811 H       
  51 H51            0.6334    -2.5702     0.4961 H       
  52 H52            0.5709    -2.3438    -1.9724 H       
  53 H53            2.3218    -2.0242    -1.9874 H       
  54 H54            1.3741    -6.7896    -2.9605 H       
  55 H55            3.1250    -6.4700    -2.9755 H       
  56 H56            0.6045    -7.7190    -8.7407 H       
  57 H57            1.6303    -8.9459   -10.9098 H       
  58 H58            1.3064    -7.2392   -11.2980 H       
  59 H59            2.1959     3.6323    -0.0001 H       
  60 H60            0.9817     5.8582     0.9132 H       
  61 H61            0.9643     5.8672    -0.8667 H       
  62 H62            2.6943    -4.1461    -3.7258 H       
  63 H63            0.9434    -4.4658    -3.7108 H       
  64 H64            3.7533    -6.9339   -11.7788 H       
  65 H65           -1.5469     5.8957    -0.7943 H       
  66 H66           -1.8919     4.8656     1.4001 H       
  67 H67           -1.0309     6.2061     2.1994 H       
  68 H68            4.6581    -8.7370   -10.3911 H       
  69 H69            3.7779    -9.9568   -11.3475 H       
  70 H70           -3.8729     8.5588     1.1785 H       
  71 H71           -2.3217     8.6127     2.0550 H       
  72 H72           -2.7161     8.0757    -0.9251 H       
  73 H73           -1.9955     9.5305    -0.1940 H       
  74 H74           -0.1846     8.1287     0.7800 H       
  75 H75           -0.2288     7.9985    -0.9944 H       
  76 H76            2.4034    -9.1876   -13.3340 H       
  77 H77            2.1270    -7.4486   -13.5924 H       
  78 H78            3.7695    -8.3163   -15.2229 H       
  79 H79            4.5431    -7.1556   -14.1162 H       
  80 H80            4.6498   -10.2016   -13.9280 H       
  81 H81            5.9961    -9.1128   -14.3512 H       
  82 H82           -6.2222     6.0818     4.0699 H       
  83 H83           -7.2955     4.8001     3.4588 H       
  84 H84           -5.5326     4.6540     3.2610 H       
  85 H85           -7.7068     7.5568     0.9912 H       
  86 H86           -8.5652     6.4952     2.1333 H       
  87 H87           -7.4918     7.7769     2.7444 H       
  88 H88           -5.8344     4.3450     0.8001 H       
  89 H89           -7.5973     4.4911     0.9979 H       
  90 H90           -6.7389     5.5527    -0.1442 H       
  91 H91            9.1918   -10.9308   -11.8030 H       
  92 H92           10.3052    -9.8735   -10.9025 H       
  93 H93            8.5779    -9.9170   -10.4750 H       
  94 H94            9.8285    -8.1081   -14.1450 H       
  95 H95           11.0355    -8.8172   -13.0457 H       
  96 H96            9.9221    -9.8745   -13.9462 H       
  97 H97            8.4465    -7.4376   -10.7541 H       
  98 H98           10.1738    -7.3942   -11.1816 H       
  99 H99            8.9667    -6.6851   -12.2810 H       
@<TRIPOS>BOND
   1    1    2 1
   2    1    3 2
   3    2    5 2
   4    3    4 1
   5    3   18 1
   6    4    5 1
   7    5    6 1
   8    6    7 1
   9    6   50 1
  10    6   51 1
  11    7   25 1
  12    7   52 1
  13    7   53 1
  14    8    9 1
  15    8   22 1
  16    8   54 1
  17    8   55 1
  18    9   10 2
  19    9   11 1
  20   10   13 1
  21   11   12 1
  22   12   13 2
  23   12   14 1
  24   14   15 am
  25   14   56 1
  26   15   16 2
  27   15   17 1
  28   17   23 1
  29   17   57 1
  30   17   58 1
  31   18   19 am
  32   18   59 1
  33   19   20 1
  34   19   21 2
  35   20   24 1
  36   20   60 1
  37   20   61 1
  38   22   25 1
  39   22   62 1
  40   22   63 1
  41   23   27 1
  42   23   32 1
  43   23   64 1
  44   24   26 1
  45   24   31 1
  46   24   65 1
  47   26   28 1
  48   26   66 1
  49   26   67 1
  50   27   35 1
  51   27   68 1
  52   27   69 1
  53   28   29 1
  54   28   36 am
  55   29   30 1
  56   29   70 1
  57   29   71 1
  58   30   31 1
  59   30   72 1
  60   30   73 1
  61   31   74 1
  62   31   75 1
  63   32   33 1
  64   32   76 1
  65   32   77 1
  66   33   34 1
  67   33   78 1
  68   33   79 1
  69   34   35 1
  70   34   80 1
  71   34   81 1
  72   35   43 am
  73   36   37 1
  74   36   38 2
  75   37   39 1
  76   39   40 1
  77   39   41 1
  78   39   42 1
  79   40   82 1
  80   40   83 1
  81   40   84 1
  82   41   85 1
  83   41   86 1
  84   41   87 1
  85   42   88 1
  86   42   89 1
  87   42   90 1
  88   43   44 2
  89   43   45 1
  90   45   46 1
  91   46   47 1
  92   46   48 1
  93   46   49 1
  94   47   91 1
  95   47   92 1
  96   47   93 1
  97   48   94 1
  98   48   95 1
  99   48   96 1
 100   49   97 1
 101   49   98 1
 102   49   99 1

#	End of record

