#	Name: ASD03090771
#	Creating user name:	WinNT
#	Creation time:	15. 06. 2019 20:29

#	Modifying user name:	WinNT
#	Modification time:	15. 06. 2019 20:29

#	Program:	/corina/corina34_cracker 3.40 0067  02.08.2006

@<TRIPOS>MOLECULE
ASD03090771
  47   49    0    0    0
SMALL
NO_CHARGES


@<TRIPOS>ATOM
   1 C1            -0.0187     1.5258     0.0104 C.3     
   2 C2             0.0021    -0.0041     0.0020 C.3     
   3 O3            -1.3386    -0.4987     0.0122 O.3     
   4 C4            -1.4983    -1.8483     0.0064 C.ar    
   5 C5            -2.7724    -2.3972     0.0157 C.ar    
   6 C6            -2.9321    -3.7693     0.0099 C.ar    
   7 C7            -1.8236    -4.5955    -0.0051 C.ar    
   8 C8            -0.5527    -4.0509    -0.0139 C.ar    
   9 C9            -0.3877    -2.6793    -0.0144 C.ar    
  10 C10           -2.0007    -6.0920    -0.0114 C.3     
  11 N11           -1.0159    -6.6966    -0.9119 N.am    
  12 C12           -1.2647    -7.8953    -1.4756 C.2     
  13 O13           -2.3038    -8.4734    -1.2373 O.2     
  14 C14           -0.2516    -8.5171    -2.4019 C.3     
  15 C15            0.4715    -9.7749    -1.9160 C.3     
  16 C16           -0.5929    -9.8789    -3.0101 C.3     
  17 C17           -0.1218   -10.1510    -4.4155 C.ar    
  18 C18           -1.0399   -10.4316    -5.4101 C.ar    
  19 C19           -0.6078   -10.6812    -6.6992 C.ar    
  20 C20            0.7424   -10.6499    -6.9938 C.ar    
  21 C21            1.6605   -10.3684    -5.9994 C.ar    
  22 C22            1.2281   -10.1145    -4.7112 C.ar    
  23 C23           -1.7984    -6.6355     1.4044 C.3     
  24 O24           -0.5255    -6.2145     1.8989 O.3     
  25 H25            1.0039     1.9031     0.0027 H       
  26 H26           -0.5459     1.8868    -0.8726 H       
  27 H27           -0.5289     1.8773     0.9072 H       
  28 H28            0.5123    -0.3556    -0.8948 H       
  29 H29            0.5293    -0.3651     0.8851 H       
  30 H30           -3.6386    -1.7523     0.0277 H       
  31 H31           -3.9238    -4.1971     0.0174 H       
  32 H32            0.3117    -4.6983    -0.0248 H       
  33 H33            0.6052    -2.2544    -0.0212 H       
  34 H34           -3.0057    -6.3375    -0.3546 H       
  35 H35           -0.1848    -6.2341    -1.1025 H       
  36 H36            0.3137    -7.8178    -3.0179 H       
  37 H37            1.5125    -9.9032    -2.2126 H       
  38 H38            0.2145   -10.1525    -0.9263 H       
  39 H39           -1.5501   -10.3250    -2.7403 H       
  40 H40           -2.0948   -10.4560    -5.1799 H       
  41 H41           -1.3250   -10.9011    -7.4761 H       
  42 H42            1.0801   -10.8456    -8.0009 H       
  43 H43            2.7154   -10.3443    -6.2295 H       
  44 H44            1.9453    -9.8946    -3.9343 H       
  45 H45           -2.5852    -6.2547     2.0557 H       
  46 H46           -1.8384    -7.7246     1.3847 H       
  47 H47           -0.3294    -6.5235     2.7940 H       
@<TRIPOS>BOND
   1    1    2 1
   2    1   25 1
   3    1   26 1
   4    1   27 1
   5    2    3 1
   6    2   28 1
   7    2   29 1
   8    3    4 1
   9    4    5 ar
  10    4    9 ar
  11    5    6 ar
  12    5   30 1
  13    6    7 ar
  14    6   31 1
  15    7    8 ar
  16    7   10 1
  17    8    9 ar
  18    8   32 1
  19    9   33 1
  20   10   11 1
  21   10   23 1
  22   10   34 1
  23   11   12 am
  24   11   35 1
  25   12   13 2
  26   12   14 1
  27   14   15 1
  28   14   16 1
  29   14   36 1
  30   15   16 1
  31   15   37 1
  32   15   38 1
  33   16   17 1
  34   16   39 1
  35   17   18 ar
  36   17   22 ar
  37   18   19 ar
  38   18   40 1
  39   19   20 ar
  40   19   41 1
  41   20   21 ar
  42   20   42 1
  43   21   22 ar
  44   21   43 1
  45   22   44 1
  46   23   24 1
  47   23   45 1
  48   23   46 1
  49   24   47 1

#	End of record

