#	Name: ASD00110011
#	Creating user name:	WinNT
#	Creation time:	15. 06. 2019 18:30

#	Modifying user name:	WinNT
#	Modification time:	15. 06. 2019 18:30

#	Program:	/corina/corina34_cracker 3.40 0067  02.08.2006

@<TRIPOS>MOLECULE
ASD00110011
  65   65    0    0    0
SMALL
NO_CHARGES


@<TRIPOS>ATOM
   1 N1             0.0652     1.3028     0.1262 N.3     
   2 C2             0.2716    -0.1478     0.2231 C.3     
   3 C3             1.0905    -0.4653     1.4764 C.3     
   4 C4             2.4384     0.2566     1.3958 C.3     
   5 C5             2.1948     1.7609     1.2467 C.3     
   6 C6             1.3439     2.0138     0.0000 C.3     
   7 C7             2.0775     1.5153    -1.2183 C.2     
   8 N8             3.3163     1.9704    -1.4921 N.am    
   9 O9             1.5533     0.7047    -1.9524 O.2     
  10 C10            4.0295     1.4858    -2.6764 C.3     
  11 C11            3.6152     2.3129    -3.8951 C.3     
  12 C12            3.2373    -0.0077     2.6736 C.3     
  13 C13            3.5805    -1.4961     2.7618 C.3     
  14 C14            4.3794    -1.7605     4.0396 C.3     
  15 C15            4.7226    -3.2489     4.1277 C.3     
  16 C16            5.5214    -3.5133     5.4056 C.3     
  17 C17            5.8647    -5.0016     5.4937 C.3     
  18 C18            6.6635    -5.2660     6.7715 C.3     
  19 C19            7.0068    -6.7544     6.8597 C.3     
  20 C20            7.8056    -7.0188     8.1375 C.3     
  21 C21            8.1489    -8.5072     8.2256 C.3     
  22 C22            8.9477    -8.7715     9.5035 C.3     
  23 O23            4.0450     3.6647    -3.7218 O.3     
  24 C24            5.5372     1.6231    -2.4555 C.3     
  25 O25            5.8789     3.0065    -2.3481 O.3     
  26 H26           -0.5518     1.5299    -0.6392 H       
  27 H27           -0.6945    -0.6488     0.2840 H       
  28 H28            0.8073    -0.4982    -0.6591 H       
  29 H29            0.5491    -0.1275     2.3601 H       
  30 H30            1.2568    -1.5406     1.5397 H       
  31 H31            2.9966    -0.1092     0.5340 H       
  32 H32            1.6708     2.1337     2.1267 H       
  33 H33            3.1501     2.2761     1.1458 H       
  34 H34            1.1566     3.0828    -0.1011 H       
  35 H35            3.7355     2.6188    -0.9049 H       
  36 H36            3.7811     0.4383    -2.8468 H       
  37 H37            4.0770     1.8969    -4.7906 H       
  38 H38            2.5306     2.2871    -4.0001 H       
  39 H39            4.1571     0.5768     2.6546 H       
  40 H40            2.6420     0.2798     3.5403 H       
  41 H41            2.6607    -2.0806     2.7808 H       
  42 H42            4.1758    -1.7836     1.8951 H       
  43 H43            5.2992    -1.1760     4.0206 H       
  44 H44            3.7841    -1.4730     4.9063 H       
  45 H45            3.8028    -3.8334     4.1468 H       
  46 H46            5.3179    -3.5364     3.2611 H       
  47 H47            6.4413    -2.9287     5.3865 H       
  48 H48            4.9262    -3.2258     6.2722 H       
  49 H49            4.9449    -5.5862     5.5128 H       
  50 H50            6.4600    -5.2892     4.6271 H       
  51 H51            7.5834    -4.6815     6.7525 H       
  52 H52            6.0682    -4.9785     7.6382 H       
  53 H53            6.0870    -7.3389     6.8787 H       
  54 H54            7.6021    -7.0419     5.9930 H       
  55 H55            8.7255    -6.4343     8.1185 H       
  56 H56            7.2103    -6.7313     9.0042 H       
  57 H57            7.2291    -9.0917     8.2447 H       
  58 H58            8.7442    -8.7947     7.3590 H       
  59 H59            9.1923    -9.8319     9.5663 H       
  60 H60            9.8676    -8.1870     9.4844 H       
  61 H61            8.3524    -8.4840    10.3701 H       
  62 H62            3.8157     4.2478    -4.4583 H       
  63 H63            5.8184     1.1071    -1.5375 H       
  64 H64            6.0696     1.1817    -3.2980 H       
  65 H65            6.8216     3.1689    -2.2067 H       
@<TRIPOS>BOND
   1    1    2 1
   2    1    6 1
   3    1   26 1
   4    2    3 1
   5    2   27 1
   6    2   28 1
   7    3    4 1
   8    3   29 1
   9    3   30 1
  10    4    5 1
  11    4   12 1
  12    4   31 1
  13    5    6 1
  14    5   32 1
  15    5   33 1
  16    6    7 1
  17    6   34 1
  18    7    8 am
  19    7    9 2
  20    8   10 1
  21    8   35 1
  22   10   11 1
  23   10   24 1
  24   10   36 1
  25   11   23 1
  26   11   37 1
  27   11   38 1
  28   12   13 1
  29   12   39 1
  30   12   40 1
  31   13   14 1
  32   13   41 1
  33   13   42 1
  34   14   15 1
  35   14   43 1
  36   14   44 1
  37   15   16 1
  38   15   45 1
  39   15   46 1
  40   16   17 1
  41   16   47 1
  42   16   48 1
  43   17   18 1
  44   17   49 1
  45   17   50 1
  46   18   19 1
  47   18   51 1
  48   18   52 1
  49   19   20 1
  50   19   53 1
  51   19   54 1
  52   20   21 1
  53   20   55 1
  54   20   56 1
  55   21   22 1
  56   21   57 1
  57   21   58 1
  58   22   59 1
  59   22   60 1
  60   22   61 1
  61   23   62 1
  62   24   25 1
  63   24   63 1
  64   24   64 1
  65   25   65 1

#	End of record

