#	Name: ASD03080210
#	Creating user name:	WinNT
#	Creation time:	15. 06. 2019 20:26

#	Modifying user name:	WinNT
#	Modification time:	15. 06. 2019 20:26

#	Program:	/corina/corina34_cracker 3.40 0067  02.08.2006

@<TRIPOS>MOLECULE
ASD03080210
  33   34    0    0    0
SMALL
NO_CHARGES


@<TRIPOS>ATOM
   1 C1            -0.0163     1.3521     0.0095 C.2     
   2 C2             0.0021    -0.0041     0.0020 C.2     
   3 C3            -1.2140    -0.7284     0.0097 C.2     
   4 N4            -1.1957    -2.0760     0.0023 N.am    
   5 O5            -2.2767    -0.1340     0.0231 O.2     
   6 C6             1.2003     2.0767     0.0018 C.2     
   7 C7             1.3283     3.4502     0.0079 C.2     
   8 C8             2.7047     3.7229    -0.0033 C.2     
   9 C9             3.3476     2.5341    -0.0155 C.2     
  10 O10            2.4413     1.5469    -0.0070 O.3     
  11 C11           -2.4544    -2.8257     0.0103 C.3     
  12 C12           -2.2328    -4.1859    -0.5996 C.ar    
  13 C13           -2.9431    -2.9864     1.4512 C.3     
  14 C14           -1.0773    -4.8901    -0.3171 C.ar    
  15 C15           -3.1875    -4.7317    -1.4371 C.ar    
  16 C16           -2.9843    -5.9793    -1.9966 C.ar    
  17 C17           -1.8260    -6.6809    -1.7190 C.ar    
  18 C18           -0.8740    -6.1377    -0.8766 C.ar    
  19 H19           -0.9589     1.8793     0.0168 H       
  20 H20            0.9446    -0.5313    -0.0098 H       
  21 H21           -0.3492    -2.5496    -0.0083 H       
  22 H22            0.5265     4.1737     0.0191 H       
  23 H23            3.1644     4.7001    -0.0026 H       
  24 H24            4.4194     2.4011    -0.0260 H       
  25 H25           -3.2029    -2.2853    -0.5691 H       
  26 H26           -2.1946    -3.5269     2.0306 H       
  27 H27           -3.1034    -2.0027     1.8924 H       
  28 H28           -3.8796    -3.5442     1.4572 H       
  29 H29           -0.3332    -4.4654     0.3404 H       
  30 H30           -4.0925    -4.1835    -1.6540 H       
  31 H31           -3.7305    -6.4060    -2.6503 H       
  32 H32           -1.6674    -7.6558    -2.1558 H       
  33 H33            0.0289    -6.6878    -0.6561 H       
@<TRIPOS>BOND
   1    1    2 2
   2    1    6 1
   3    1   19 1
   4    2    3 1
   5    2   20 1
   6    3    4 am
   7    3    5 2
   8    4   11 1
   9    4   21 1
  10    6    7 2
  11    6   10 1
  12    7    8 1
  13    7   22 1
  14    8    9 2
  15    8   23 1
  16    9   10 1
  17    9   24 1
  18   11   12 1
  19   11   13 1
  20   11   25 1
  21   12   15 ar
  22   12   14 ar
  23   13   26 1
  24   13   27 1
  25   13   28 1
  26   14   18 ar
  27   14   29 1
  28   15   16 ar
  29   15   30 1
  30   16   17 ar
  31   16   31 1
  32   17   18 ar
  33   17   32 1
  34   18   33 1

#	End of record

