#	Name: ASD01840238
#	Creating user name:	WinNT
#	Creation time:	15. 06. 2019 19:37

#	Modifying user name:	WinNT
#	Modification time:	15. 06. 2019 19:37

#	Program:	/corina/corina34_cracker 3.40 0067  02.08.2006

@<TRIPOS>MOLECULE
ASD01840238
  39   41    0    0    0
SMALL
NO_CHARGES


@<TRIPOS>ATOM
   1 C1             0.1014     1.9241    -0.0898 C.3     
   2 C2             0.3931     0.4476    -0.1662 C.ar    
   3 C3             0.5790    -0.2741     0.9876 C.ar    
   4 C4             0.8505    -1.6469     0.9258 C.ar    
   5 C5             0.9314    -2.2799    -0.3177 C.ar    
   6 C6             0.7358    -1.5126    -1.4881 C.ar    
   7 C7             0.4674    -0.1809    -1.4039 C.ar    
   8 S8             1.1289    -2.8068     2.2182 S.3     
   9 C9             1.3511    -4.1276     1.0880 C.2     
  10 C10            1.2192    -3.6998    -0.1919 C.2     
  11 C11            0.8187    -2.1750    -2.8392 C.3     
  12 C12            1.6316    -5.4660     1.4623 C.2     
  13 O13            1.7714    -6.3210     0.6065 O.2     
  14 Cl14           0.2305     0.7431    -2.8544 Cl      
  15 N15            1.3471    -4.5438    -1.2867 N.pl3   
  16 N16            1.7436    -5.7919     2.7652 N.am    
  17 C17            2.0334    -7.1749     3.1520 C.3     
  18 C18            2.1068    -7.2716     4.6541 C.ar    
  19 C19            0.9741    -7.5500     5.4036 C.ar    
  20 C20            3.3098    -7.0898     5.3190 C.ar    
  21 C21            3.3386    -7.1859     6.6974 C.ar    
  22 N22            2.2400    -7.4472     7.3785 N.ar    
  23 C23            1.0798    -7.6309     6.7792 C.ar    
  24 H24            1.0382     2.4809    -0.1081 H       
  25 H25           -0.5125     2.2177    -0.9413 H       
  26 H26           -0.4326     2.1416     0.8352 H       
  27 H27            0.5160     0.2190     1.9464 H       
  28 H28           -0.1418    -2.6306    -3.0800 H       
  29 H29            1.0667    -1.4295    -3.5948 H       
  30 H30            1.5910    -2.9439    -2.8202 H       
  31 H31            1.8651    -5.3605    -1.2116 H       
  32 H32            0.9185    -4.3169    -2.1267 H       
  33 H33            1.6322    -5.1109     3.4469 H       
  34 H34            1.2425    -7.8285     2.7841 H       
  35 H35            2.9869    -7.4804     2.7212 H       
  36 H36            0.0210    -7.7014     4.9186 H       
  37 H37            4.2130    -6.8763     4.7668 H       
  38 H38            4.2717    -7.0457     7.2229 H       
  39 H39            0.2013    -7.8431     7.3705 H       
@<TRIPOS>BOND
   1    1    2 1
   2    1   24 1
   3    1   25 1
   4    1   26 1
   5    2    3 ar
   6    2    7 ar
   7    3    4 ar
   8    3   27 1
   9    4    5 ar
  10    4    8 1
  11    5    6 ar
  12    5   10 1
  13    6    7 ar
  14    6   11 1
  15    7   14 1
  16    8    9 1
  17    9   10 2
  18    9   12 1
  19   10   15 1
  20   11   28 1
  21   11   29 1
  22   11   30 1
  23   12   13 2
  24   12   16 am
  25   15   31 1
  26   15   32 1
  27   16   17 1
  28   16   33 1
  29   17   18 1
  30   17   34 1
  31   17   35 1
  32   18   19 ar
  33   18   20 ar
  34   19   23 ar
  35   19   36 1
  36   20   21 ar
  37   20   37 1
  38   21   22 ar
  39   21   38 1
  40   22   23 ar
  41   23   39 1

#	End of record

