#	Name: ASD01410185
#	Creating user name:	WinNT
#	Creation time:	15. 06. 2019 19:16

#	Modifying user name:	WinNT
#	Modification time:	15. 06. 2019 19:16

#	Program:	/corina/corina34_cracker 3.40 0067  02.08.2006

@<TRIPOS>MOLECULE
ASD01410185
  48   51    0    0    0
SMALL
NO_CHARGES


@<TRIPOS>ATOM
   1 C1            -0.0170     1.4058     0.0098 C.ar    
   2 C2             0.0021    -0.0041     0.0020 C.ar    
   3 C3            -1.2001    -0.7093     0.0097 C.ar    
   4 C4            -2.3885    -0.0417     0.0246 C.ar    
   5 C5            -2.4219     1.3605     0.0320 C.ar    
   6 C6            -1.2339     2.0859     0.0301 C.ar    
   7 C7             1.3815     1.8347    -0.0013 C.2     
   8 C8             2.1376     0.7096    -0.0145 C.2     
   9 N9             1.3190    -0.3965    -0.0127 N.pl3   
  10 C10            1.2721    -2.5052     1.2253 C.3     
  11 C11            1.7563    -3.9565     1.2125 C.3     
  12 C12            1.2212    -4.6616    -0.0355 C.3     
  13 C13            1.7317    -3.9426    -1.2858 C.3     
  14 C14            1.2476    -2.4913    -1.2730 C.3     
  15 C15            1.7826    -1.7862    -0.0250 C.3     
  16 C16           -3.7169     2.0670     0.0477 C.2     
  17 O17           -3.7462     3.2816     0.0541 O.2     
  18 O18           -4.8671     1.3653     0.0549 O.3     
  19 C19            5.6847    -0.2241     0.7947 C.ar    
  20 C20            6.3844     0.6134    -0.0556 C.ar    
  21 C21            5.7070     1.4822    -0.8926 C.ar    
  22 C22            4.3279     1.5183    -0.8841 C.ar    
  23 C23            3.6161     0.6762    -0.0288 C.ar    
  24 C24            4.3054    -0.1978     0.8129 C.ar    
  25 C25            1.8851     3.2550     0.0015 C.3     
  26 H26           -1.1900    -1.7892     0.0034 H       
  27 H27           -3.3141    -0.5983     0.0305 H       
  28 H28           -1.2547     3.1657     0.0357 H       
  29 H29            0.1824    -2.4858     1.2362 H       
  30 H30            1.6533    -2.0029     2.1144 H       
  31 H31            2.8461    -3.9759     1.2017 H       
  32 H32            1.3926    -4.4688     2.1032 H       
  33 H33            1.5662    -5.6956    -0.0447 H       
  34 H34            0.1315    -4.6422    -0.0247 H       
  35 H35            2.8215    -3.9620    -1.2967 H       
  36 H36            1.3505    -4.4449    -2.1749 H       
  37 H37            1.6112    -1.9790    -2.1637 H       
  38 H38            0.1578    -2.4719    -1.2621 H       
  39 H39            2.8724    -1.8056    -0.0358 H       
  40 H40           -5.6905     1.8721     0.0652 H       
  41 H41            6.2192    -0.9031     1.4425 H       
  42 H42            7.4641     0.5892    -0.0658 H       
  43 H43            6.2590     2.1334    -1.5541 H       
  44 H44            3.8003     2.1974    -1.5375 H       
  45 H45            3.7603    -0.8523     1.4769 H       
  46 H46            2.0168     3.5918     1.0298 H       
  47 H47            2.8402     3.3029    -0.5216 H       
  48 H48            1.1627     3.8977    -0.5016 H       
@<TRIPOS>BOND
   1    1    2 ar
   2    1    7 1
   3    1    6 ar
   4    2    3 ar
   5    2    9 1
   6    3    4 ar
   7    3   26 1
   8    4    5 ar
   9    4   27 1
  10    5    6 ar
  11    5   16 1
  12    6   28 1
  13    7    8 2
  14    7   25 1
  15    8    9 1
  16    8   23 1
  17    9   15 1
  18   10   11 1
  19   10   15 1
  20   10   29 1
  21   10   30 1
  22   11   12 1
  23   11   31 1
  24   11   32 1
  25   12   13 1
  26   12   33 1
  27   12   34 1
  28   13   14 1
  29   13   35 1
  30   13   36 1
  31   14   15 1
  32   14   37 1
  33   14   38 1
  34   15   39 1
  35   16   17 2
  36   16   18 1
  37   18   40 1
  38   19   20 ar
  39   19   24 ar
  40   19   41 1
  41   20   21 ar
  42   20   42 1
  43   21   22 ar
  44   21   43 1
  45   22   23 ar
  46   22   44 1
  47   23   24 ar
  48   24   45 1
  49   25   46 1
  50   25   47 1
  51   25   48 1

#	End of record

