#	Name: ASD01411023
#	Creating user name:	WinNT
#	Creation time:	15. 06. 2019 19:19

#	Modifying user name:	WinNT
#	Modification time:	15. 06. 2019 19:19

#	Program:	/corina/corina34_cracker 3.40 0067  02.08.2006

@<TRIPOS>MOLECULE
ASD01411023
  76   81    0    0    0
SMALL
NO_CHARGES


@<TRIPOS>ATOM
   1 C1            -0.7361     2.5802    -0.0353 C.ar    
   2 C2            -0.3368     1.3191     0.4473 C.ar    
   3 C3            -1.2208     0.2464     0.4125 C.ar    
   4 C4            -2.4791     0.4107    -0.0893 C.ar    
   5 C5            -2.8936     1.6584    -0.5744 C.ar    
   6 C6            -2.0253     2.7449    -0.5433 C.ar    
   7 N7             0.3159     3.4209     0.1232 N.2     
   8 C8             1.3184     2.7721     0.6618 C.2     
   9 N9             0.9631     1.4681     0.8810 N.pl3   
  10 C10            1.8075     0.4249     1.4683 C.3     
  11 C11            2.4081     0.9335     2.7803 C.3     
  12 C12            3.2901    -0.1560     3.3936 C.3     
  13 C13            2.4450    -1.4015     3.6686 C.3     
  14 C14            1.8444    -1.9101     2.3565 C.3     
  15 C15            0.9625    -0.8206     1.7432 C.3     
  16 C16           -4.2580     1.8218    -1.1151 C.2     
  17 O17           -4.6195     2.9034    -1.5363 O.2     
  18 N18           -5.1026     0.7718    -1.1416 N.am    
  19 C19           -6.4883     0.9572    -1.5794 C.3     
  20 C20           -6.5917     1.4764    -2.9903 C.2     
  21 O21           -7.5093     2.2054    -3.3025 O.2     
  22 C22            2.6368     3.3600     0.9844 C.ar    
  23 C23           -7.3896    -0.2576    -1.3024 C.3     
  24 C24           -8.4864     0.7453    -0.9074 C.3     
  25 C25           -7.3539     1.7329    -0.5725 C.3     
  26 N26           -5.6645     1.1306    -3.9053 N.am    
  27 C27           -5.8187     1.5197    -5.2358 C.ar    
  28 C28           -5.2964     0.7287    -6.2548 C.ar    
  29 C29           -5.4457     1.1088    -7.5689 C.ar    
  30 C30           -6.1247     2.2931    -7.8800 C.ar    
  31 C31           -6.6489     3.0855    -6.8515 C.ar    
  32 C32           -6.4993     2.6947    -5.5405 C.ar    
  33 C33           -6.2863     2.7035    -9.2817 C.2     
  34 C34           -6.9418     3.8467    -9.5796 C.2     
  35 C35            2.7300     4.6928     1.3871 C.ar    
  36 C36            3.9628     5.2352     1.6866 C.ar    
  37 C37            5.1049     4.4607     1.5882 C.ar    
  38 C38            5.0193     3.1388     1.1890 C.ar    
  39 C39            3.7919     2.5827     0.8927 C.ar    
  40 C40           -7.0977     4.2426   -10.9320 C.2     
  41 O41           -6.6412     3.5530   -11.8242 O.2     
  42 O42           -7.7524     5.3843   -11.2295 O.3     
  43 H43           -0.9107    -0.7194     0.7832 H       
  44 H44           -3.1603    -0.4270    -0.1132 H       
  45 H45           -2.3440     3.7068    -0.9169 H       
  46 H46            2.6099     0.1737     0.7746 H       
  47 H47            3.0102     1.8208     2.5844 H       
  48 H48            1.6057     1.1847     3.4739 H       
  49 H49            4.0925    -0.4072     2.7000 H       
  50 H50            3.7180     0.2064     4.3284 H       
  51 H51            3.0733    -2.1776     4.1055 H       
  52 H52            1.6426    -1.1503     4.3622 H       
  53 H53            2.6468    -2.1613     1.6629 H       
  54 H54            1.2424    -2.7974     2.5524 H       
  55 H55            0.1601    -0.5694     2.4368 H       
  56 H56            0.5346    -1.1830     0.8085 H       
  57 H57           -4.7929    -0.1067    -0.8708 H       
  58 H58           -7.6282    -0.8367    -2.1945 H       
  59 H59           -7.0453    -0.8769    -0.4741 H       
  60 H60           -9.1085     1.0638    -1.7438 H       
  61 H61           -9.0685     0.4363    -0.0392 H       
  62 H62           -6.9993     1.6584     0.4555 H       
  63 H63           -7.5652     2.7585    -0.8752 H       
  64 H64           -4.8900     0.6112    -3.6385 H       
  65 H65           -4.7728    -0.1846    -6.0139 H       
  66 H66           -5.0394     0.4948    -8.3590 H       
  67 H67           -7.1730     3.9999    -7.0868 H       
  68 H68           -6.9036     3.3051    -4.7465 H       
  69 H69           -5.8810     2.0913   -10.0737 H       
  70 H70           -7.3471     4.4589    -8.7875 H       
  71 H71            1.8392     5.2985     1.4640 H       
  72 H72            4.0363     6.2666     1.9981 H       
  73 H73            6.0676     4.8899     1.8237 H       
  74 H74            5.9147     2.5395     1.1139 H       
  75 H75            3.7264     1.5507     0.5812 H       
  76 H76           -7.8080     5.5704   -12.1768 H       
@<TRIPOS>BOND
   1    1    2 ar
   2    1    7 1
   3    1    6 ar
   4    2    3 ar
   5    2    9 1
   6    3    4 ar
   7    3   43 1
   8    4    5 ar
   9    4   44 1
  10    5    6 ar
  11    5   16 1
  12    6   45 1
  13    7    8 2
  14    8    9 1
  15    8   22 1
  16    9   10 1
  17   10   11 1
  18   10   15 1
  19   10   46 1
  20   11   12 1
  21   11   47 1
  22   11   48 1
  23   12   13 1
  24   12   49 1
  25   12   50 1
  26   13   14 1
  27   13   51 1
  28   13   52 1
  29   14   15 1
  30   14   53 1
  31   14   54 1
  32   15   55 1
  33   15   56 1
  34   16   17 2
  35   16   18 am
  36   18   19 1
  37   18   57 1
  38   19   20 1
  39   19   23 1
  40   19   25 1
  41   20   21 2
  42   20   26 am
  43   22   35 ar
  44   22   39 ar
  45   23   24 1
  46   23   58 1
  47   23   59 1
  48   24   25 1
  49   24   60 1
  50   24   61 1
  51   25   62 1
  52   25   63 1
  53   26   27 1
  54   26   64 1
  55   27   28 ar
  56   27   32 ar
  57   28   29 ar
  58   28   65 1
  59   29   30 ar
  60   29   66 1
  61   30   31 ar
  62   30   33 1
  63   31   32 ar
  64   31   67 1
  65   32   68 1
  66   33   34 2
  67   33   69 1
  68   34   40 1
  69   34   70 1
  70   35   36 ar
  71   35   71 1
  72   36   37 ar
  73   36   72 1
  74   37   38 ar
  75   37   73 1
  76   38   39 ar
  77   38   74 1
  78   39   75 1
  79   40   41 2
  80   40   42 1
  81   42   76 1

#	End of record

