#	Name: ASD08170312
#	Creating user name:	WinNT
#	Creation time:	15. 06. 2019 21:17

#	Modifying user name:	WinNT
#	Modification time:	15. 06. 2019 21:17

#	Program:	/corina/corina34_cracker 3.40 0067  02.08.2006

@<TRIPOS>MOLECULE
ASD08170312
  51   52    0    0    0
SMALL
NO_CHARGES


@<TRIPOS>ATOM
   1 C1            -0.0162     1.3436     0.0094 C.2     
   2 N2             0.0021    -0.0041     0.0020 N.am    
   3 C3             1.2158    -0.6830    -0.0132 C.2     
   4 S4             1.4076    -2.3853    -0.0242 S.3     
   5 C5             3.1581    -2.1679    -0.0397 C.2     
   6 C6             4.1900    -3.2660    -0.0555 C.3     
   7 C7             7.1341    -6.3828     3.2824 C.3     
   8 C8             7.3803    -6.6377     4.7471 C.2     
   9 S9             8.5882    -5.8382     5.7537 S.3     
  10 C10            8.0647    -6.7728     7.0905 C.2     
  11 N11            2.3916    -0.1314    -0.0271 N.2     
  12 N12            3.3971    -0.8949    -0.0352 N.2     
  13 N13            6.7391    -7.4792     5.4944 N.2     
  14 N14            7.0991    -7.5501     6.7024 N.2     
  15 O15            1.0258     1.9642     0.0028 O.2     
  16 C16           -1.3314     2.0792     0.0197 C.3     
  17 C17            4.5530    -3.6454     1.3816 C.3     
  18 C18            6.0914    -5.2741     3.1258 C.3     
  19 N19            8.5872    -6.7101     8.3778 N.am    
  20 C20            8.0869    -7.5012     9.3475 C.2     
  21 O21            7.1809    -8.2678     9.0975 O.2     
  22 C22            8.6531    -7.4332    10.7424 C.3     
  23 S23            5.7952    -4.9672     1.3627 S.3     
  24 N24            8.3118    -8.6630    11.4699 N.3     
  25 C25            8.0620    -6.2268    11.4745 C.3     
  26 O26            8.6844    -6.0943    12.7540 O.3     
  27 C27           -1.9055     2.1173    -1.3980 C.3     
  28 O28           -3.2049     2.7113    -1.3699 O.3     
  29 N29           -1.1211     3.4515     0.4998 N.3     
  30 H30           -0.8313    -0.5005     0.0073 H       
  31 H31            3.7854    -4.1375    -0.5701 H       
  32 H32            5.0824    -2.9185    -0.5760 H       
  33 H33            8.0650    -6.0760     2.8055 H       
  34 H34            6.7680    -7.2950     2.8113 H       
  35 H35           -2.0297     1.5660     0.6808 H       
  36 H36            4.9576    -2.7739     1.8963 H       
  37 H37            3.6606    -3.9929     1.9021 H       
  38 H38            5.1605    -5.5808     3.6027 H       
  39 H39            6.4576    -4.3618     3.5969 H       
  40 H40            9.3118    -6.0970     8.5778 H       
  41 H41            9.7371    -7.3311    10.6899 H       
  42 H42            8.7344    -8.6702    12.3861 H       
  43 H43            7.3116    -8.7805    11.5321 H       
  44 H44            8.2387    -5.3244    10.8893 H       
  45 H45            6.9896    -6.3709    11.6054 H       
  46 H46            8.3577    -5.3479    13.2749 H       
  47 H47           -1.2504     2.7067    -2.0396 H       
  48 H48           -1.9784     1.1020    -1.7879 H       
  49 H49           -3.6301     2.7683    -2.2365 H       
  50 H50           -0.8031     3.4548     1.4574 H       
  51 H51           -0.4770     3.9487    -0.0968 H       
@<TRIPOS>BOND
   1    1    2 am
   2    1   15 2
   3    1   16 1
   4    2    3 1
   5    2   30 1
   6    3    4 1
   7    3   11 2
   8    4    5 1
   9    5    6 1
  10    5   12 2
  11    6   17 1
  12    6   31 1
  13    6   32 1
  14    7    8 1
  15    7   18 1
  16    7   33 1
  17    7   34 1
  18    8    9 1
  19    8   13 2
  20    9   10 1
  21   10   19 1
  22   10   14 2
  23   11   12 1
  24   13   14 1
  25   16   27 1
  26   16   29 1
  27   16   35 1
  28   17   23 1
  29   17   36 1
  30   17   37 1
  31   18   23 1
  32   18   38 1
  33   18   39 1
  34   19   20 am
  35   19   40 1
  36   20   21 2
  37   20   22 1
  38   22   24 1
  39   22   25 1
  40   22   41 1
  41   24   42 1
  42   24   43 1
  43   25   26 1
  44   25   44 1
  45   25   45 1
  46   26   46 1
  47   27   28 1
  48   27   47 1
  49   27   48 1
  50   28   49 1
  51   29   50 1
  52   29   51 1

#	End of record

