#	Name: ASD01890123
#	Creating user name:	WinNT
#	Creation time:	15. 06. 2019 19:50

#	Modifying user name:	WinNT
#	Modification time:	15. 06. 2019 19:50

#	Program:	/corina/corina34_cracker 3.40 0067  02.08.2006

@<TRIPOS>MOLECULE
ASD01890123
  32   34    0    0    0
SMALL
NO_CHARGES


@<TRIPOS>ATOM
   1 C1            -0.0178     1.4604     0.0101 C.2     
   2 C2             0.0021    -0.0041     0.0020 C.2     
   3 C3             1.1792    -0.6625    -0.0128 C.2     
   4 O4             1.0290     2.0839     0.0034 O.2     
   5 C5             1.1992    -2.1341    -0.0209 C.ar    
   6 C6             2.4176    -2.8205    -0.0362 C.ar    
   7 C7             2.4280    -4.1992    -0.0437 C.ar    
   8 C8             1.2367    -4.9039    -0.0362 C.ar    
   9 C9             0.0268    -4.2319    -0.0210 C.ar    
  10 C10           -0.0002    -2.8534    -0.0075 C.ar    
  11 N11           -3.4846     2.6014     0.0335 N.pl3   
  12 C12           -2.5477     1.6228     0.0234 C.2     
  13 C13           -1.3008     2.1781     0.0201 C.2     
  14 C14           -1.4945     3.6395     0.0289 C.ar    
  15 C15           -0.6283     4.7302     0.0300 C.ar    
  16 C16           -1.1416     6.0087     0.0391 C.ar    
  17 C17           -2.5140     6.2120     0.0477 C.ar    
  18 C18           -3.3822     5.1421     0.0472 C.ar    
  19 C19           -2.8836     3.8435     0.0371 C.ar    
  20 H20           -0.9258    -0.5567     0.0079 H       
  21 H21            2.1071    -0.1098    -0.0186 H       
  22 H22            3.3480    -2.2720    -0.0424 H       
  23 H23            3.3681    -4.7307    -0.0559 H       
  24 H24            1.2514    -5.9838    -0.0425 H       
  25 H25           -0.8985    -4.7888    -0.0156 H       
  26 H26           -0.9450    -2.3305     0.0092 H       
  27 H27           -4.4428     2.4502     0.0339 H       
  28 H28           -2.7560     0.5631     0.0193 H       
  29 H29            0.4404     4.5744     0.0241 H       
  30 H30           -0.4725     6.8565     0.0400 H       
  31 H31           -2.9055     7.2185     0.0551 H       
  32 H32           -4.4488     5.3115     0.0546 H       
@<TRIPOS>BOND
   1    1    2 1
   2    1    4 2
   3    1   13 1
   4    2    3 2
   5    2   20 1
   6    3    5 1
   7    3   21 1
   8    5    6 ar
   9    5   10 ar
  10    6    7 ar
  11    6   22 1
  12    7    8 ar
  13    7   23 1
  14    8    9 ar
  15    8   24 1
  16    9   10 ar
  17    9   25 1
  18   10   26 1
  19   11   12 1
  20   11   19 1
  21   11   27 1
  22   12   13 2
  23   12   28 1
  24   13   14 1
  25   14   15 ar
  26   14   19 ar
  27   15   16 ar
  28   15   29 1
  29   16   17 ar
  30   16   30 1
  31   17   18 ar
  32   17   31 1
  33   18   19 ar
  34   18   32 1

#	End of record

