#	Name: ASD01900868
#	Creating user name:	WinNT
#	Creation time:	15. 06. 2019 19:52

#	Modifying user name:	WinNT
#	Modification time:	15. 06. 2019 19:52

#	Program:	/corina/corina34_cracker 3.40 0067  02.08.2006

@<TRIPOS>MOLECULE
ASD01900868
  36   39    0    0    0
SMALL
NO_CHARGES


@<TRIPOS>ATOM
   1 C1             0.0133     1.2908    -0.1772 C.ar    
   2 C2             0.0459    -0.0733     0.0401 C.ar    
   3 C3             1.2550    -0.7170     0.2432 C.ar    
   4 C4             2.4430    -0.0107     0.2267 C.ar    
   5 C5             2.4308     1.3567     0.0077 C.ar    
   6 C6             1.2023     2.0083    -0.1884 C.ar    
   7 O7             3.5864     2.0670    -0.0291 O.3     
   8 C8             3.5962     3.3642     0.5768 C.3     
   9 C9             2.3170     4.2046     0.3922 C.3     
  10 C10            1.2222     3.4789    -0.3875 C.2     
  11 N11            0.3827     4.0944    -1.1563 N.2     
  12 O12           -0.6097     3.3614    -1.8513 O.3     
  13 C13            4.9185     4.0866     0.5508 C.2     
  14 O14            5.0633     5.1094     1.1864 O.2     
  15 N15            5.9402     3.5962    -0.1787 N.am    
  16 C16            7.1354     4.3164    -0.2816 C.ar    
  17 C17            7.6025     5.0480     0.8025 C.ar    
  18 C18            8.7826     5.7579     0.6977 C.ar    
  19 C19            9.4988     5.7407    -0.4851 C.ar    
  20 C20            9.0361     5.0136    -1.5665 C.ar    
  21 C21            7.8599     4.2966    -1.4661 C.ar    
  22 C22            2.6628     3.6096     1.7611 C.3     
  23 H23           -0.9281     1.7940    -0.3413 H       
  24 H24           -0.8741    -0.6389     0.0520 H       
  25 H25            1.2698    -1.7828     0.4168 H       
  26 H26            3.3797    -0.5245     0.3847 H       
  27 H27            2.4030     5.2789     0.2292 H       
  28 H28           -1.1896     3.9070    -2.4000 H       
  29 H29            5.8469     2.7439    -0.6323 H       
  30 H30            7.0434     5.0621     1.7264 H       
  31 H31            9.1462     6.3273     1.5402 H       
  32 H32           10.4213     6.2966    -0.5646 H       
  33 H33            9.5976     5.0025    -2.4890 H       
  34 H34            7.5016     3.7250    -2.3095 H       
  35 H35            2.0623     2.7695     2.1099 H       
  36 H36            3.0039     4.2963     2.5358 H       
@<TRIPOS>BOND
   1    1    2 ar
   2    1    6 ar
   3    1   23 1
   4    2    3 ar
   5    2   24 1
   6    3    4 ar
   7    3   25 1
   8    4    5 ar
   9    4   26 1
  10    5    7 1
  11    5    6 ar
  12    6   10 1
  13    7    8 1
  14    8    9 1
  15    8   13 1
  16    8   22 1
  17    9   10 1
  18    9   22 1
  19    9   27 1
  20   10   11 2
  21   11   12 1
  22   12   28 1
  23   13   14 2
  24   13   15 am
  25   15   16 1
  26   15   29 1
  27   16   17 ar
  28   16   21 ar
  29   17   18 ar
  30   17   30 1
  31   18   19 ar
  32   18   31 1
  33   19   20 ar
  34   19   32 1
  35   20   21 ar
  36   20   33 1
  37   21   34 1
  38   22   35 1
  39   22   36 1

#	End of record

