#	Name: ASD00431299
#	Creating user name:	WinNT
#	Creation time:	15. 06. 2019 18:35

#	Modifying user name:	WinNT
#	Modification time:	15. 06. 2019 18:35

#	Program:	/corina/corina34_cracker 3.40 0067  02.08.2006

@<TRIPOS>MOLECULE
ASD00431299
  43   45    0    0    0
SMALL
NO_CHARGES


@<TRIPOS>ATOM
   1 C1             0.1691     1.1144     0.1757 C.3     
   2 C2             0.2067    -0.4100     0.0500 C.3     
   3 C3             1.5753     1.6556     0.1471 C.2     
   4 C4             2.2802     2.0212     1.2223 C.2     
   5 C5             3.5498     2.4892     0.9577 C.2     
   6 C6             3.8832     2.5049    -0.3512 C.2     
   7 S7             2.5378     1.8940    -1.3053 S.3     
   8 S8             5.6328     2.9871    -2.5981 S.3     
   9 C9             5.1743     2.9572    -0.8942 C.2     
  10 N10            6.1846     3.4082    -0.2015 N.2     
  11 N11            7.2193     3.7539    -0.8340 N.2     
  12 C12            7.2055     3.6363    -2.1299 C.2     
  13 O13            8.2191     3.9563    -2.9710 O.3     
  14 C14            9.3054     4.5870    -2.4507 C.ar    
  15 C15            9.2895     5.0235    -1.1339 C.ar    
  16 C16           10.3930     5.6642    -0.6054 C.ar    
  17 C17           11.5170     5.8717    -1.3913 C.ar    
  18 C18           11.5330     5.4353    -2.7079 C.ar    
  19 C19           10.4319     4.7890    -3.2347 C.ar    
  20 O20           12.6030     6.5033    -0.8712 O.3     
  21 C21           12.4725     7.0385     0.4474 C.3     
  22 C22           12.9821     6.0163     1.4654 C.3     
  23 C23           13.2948     8.3238     0.5598 C.3     
  24 N24           -0.5959     1.6793    -0.9439 N.3     
  25 H25           -0.3071     1.3897     1.1167 H       
  26 H26            0.7744    -0.8292     0.8807 H       
  27 H27           -0.8103    -0.8014     0.0707 H       
  28 H28            0.6829    -0.6853    -0.8910 H       
  29 H29            1.8842     1.9551     2.2249 H       
  30 H30            4.2239     2.8175     1.7350 H       
  31 H31            8.4140     4.8626    -0.5222 H       
  32 H32           10.3806     6.0040     0.4197 H       
  33 H33           12.4082     5.5969    -3.3197 H       
  34 H34           10.4463     4.4450    -4.2583 H       
  35 H35           11.4241     7.2593     0.6478 H       
  36 H36           12.8825     6.4246     2.4712 H       
  37 H37           12.3962     5.1007     1.3854 H       
  38 H38           14.0305     5.7956     1.2650 H       
  39 H39           12.9318     9.0520    -0.1655 H       
  40 H40           13.1953     8.7320     1.5655 H       
  41 H41           14.3433     8.1030     0.3594 H       
  42 H42           -0.1396     1.4928    -1.8243 H       
  43 H43           -1.5430     1.3315    -0.9467 H       
@<TRIPOS>BOND
   1    1    2 1
   2    1    3 1
   3    1   24 1
   4    1   25 1
   5    2   26 1
   6    2   27 1
   7    2   28 1
   8    3    4 2
   9    3    7 1
  10    4    5 1
  11    4   29 1
  12    5    6 2
  13    5   30 1
  14    6    7 1
  15    6    9 1
  16    8    9 1
  17    8   12 1
  18    9   10 2
  19   10   11 1
  20   11   12 2
  21   12   13 1
  22   13   14 1
  23   14   15 ar
  24   14   19 ar
  25   15   16 ar
  26   15   31 1
  27   16   17 ar
  28   16   32 1
  29   17   18 ar
  30   17   20 1
  31   18   19 ar
  32   18   33 1
  33   19   34 1
  34   20   21 1
  35   21   22 1
  36   21   23 1
  37   21   35 1
  38   22   36 1
  39   22   37 1
  40   22   38 1
  41   23   39 1
  42   23   40 1
  43   23   41 1
  44   24   42 1
  45   24   43 1

#	End of record

