#	Name: ASD01915913
#	Creating user name:	WinNT
#	Creation time:	15. 06. 2019 20:06

#	Modifying user name:	WinNT
#	Modification time:	15. 06. 2019 20:06

#	Program:	/corina/corina34_cracker 3.40 0067  02.08.2006

@<TRIPOS>MOLECULE
ASD01915913
  43   46    0    0    0
SMALL
NO_CHARGES


@<TRIPOS>ATOM
   1 C1            -0.0167     1.3784     0.0096 C.2     
   2 C2             0.0021    -0.0041     0.0020 C.2     
   3 C3            -1.3079    -0.7738     0.0125 C.3     
   4 C4            -2.3558     0.0516     0.7562 C.3     
   5 N5            -2.3951     1.4407     0.3184 N.am    
   6 C6            -1.2704     2.1349     0.0202 C.2     
   7 O7            -1.3002     3.3282    -0.2190 O.2     
   8 S8             1.6339     1.9584    -0.0030 S.3     
   9 C9             2.2090     0.3472    -0.0182 C.2     
  10 N10            1.2154    -0.4927    -0.0132 N.2     
  11 C11            4.4726     1.0561    -0.0382 C.3     
  12 C12            5.8638     0.4769    -0.0565 C.ar    
  13 C13            6.4890     0.2185    -1.2620 C.ar    
  14 C14            6.5168     0.2094     1.1321 C.ar    
  15 C15            7.7929    -0.3219     1.1153 C.ar    
  16 C16            8.4157    -0.5860    -0.0902 C.ar    
  17 C17            7.7651    -0.3128    -1.2788 C.ar    
  18 O18            3.5151    -0.0046    -0.0343 O.3     
  19 C19           -4.0498     2.7651     1.5003 C.ar    
  20 C20           -3.9476     4.1366     1.6347 C.ar    
  21 C21           -4.2794     4.7414     2.8326 C.ar    
  22 C22           -4.7150     3.9734     3.8991 C.ar    
  23 C23           -4.8182     2.5994     3.7655 C.ar    
  24 C24           -4.4854     1.9949     2.5658 C.ar    
  25 F25           -4.5861     0.6541     2.4339 F       
  26 F26           -5.0387     4.5647     5.0699 F       
  27 C27           -3.6932     2.1078     0.1920 C.3     
  28 H28           -1.6383    -0.9469    -1.0117 H       
  29 H29           -1.1670    -1.7282     0.5197 H       
  30 H30           -3.3362    -0.3961     0.5937 H       
  31 H31           -2.1321     0.0253     1.8227 H       
  32 H32            4.3442     1.6647     0.8569 H       
  33 H33            4.3252     1.6754    -0.9229 H       
  34 H34            5.9804     0.4313    -2.1907 H       
  35 H35            6.0301     0.4157     2.0739 H       
  36 H36            8.3033    -0.5303     2.0440 H       
  37 H37            9.4128    -1.0007    -0.1033 H       
  38 H38            8.2517    -0.5191    -2.2206 H       
  39 H39           -3.6079     4.7364     0.8033 H       
  40 H40           -4.1984     5.8133     2.9367 H       
  41 H41           -5.1579     1.9996     4.5969 H       
  42 H42           -3.6385     2.8638    -0.5914 H       
  43 H43           -4.4559     1.3727    -0.0651 H       
@<TRIPOS>BOND
   1    1    2 2
   2    1    8 1
   3    1    6 1
   4    2    3 1
   5    2   10 1
   6    3    4 1
   7    3   28 1
   8    3   29 1
   9    4    5 1
  10    4   30 1
  11    4   31 1
  12    5    6 am
  13    5   27 1
  14    6    7 2
  15    8    9 1
  16    9   10 2
  17    9   18 1
  18   11   12 1
  19   11   18 1
  20   11   32 1
  21   11   33 1
  22   12   13 ar
  23   12   14 ar
  24   13   17 ar
  25   13   34 1
  26   14   15 ar
  27   14   35 1
  28   15   16 ar
  29   15   36 1
  30   16   17 ar
  31   16   37 1
  32   17   38 1
  33   19   20 ar
  34   19   24 ar
  35   19   27 1
  36   20   21 ar
  37   20   39 1
  38   21   22 ar
  39   21   40 1
  40   22   23 ar
  41   22   26 1
  42   23   24 ar
  43   23   41 1
  44   24   25 1
  45   27   42 1
  46   27   43 1

#	End of record

