#	Name: ASD01882179
#	Creating user name:	WinNT
#	Creation time:	15. 06. 2019 19:44

#	Modifying user name:	WinNT
#	Modification time:	15. 06. 2019 19:44

#	Program:	/corina/corina34_cracker 3.40 0067  02.08.2006

@<TRIPOS>MOLECULE
ASD01882179
  55   59    0    0    0
SMALL
NO_CHARGES


@<TRIPOS>ATOM
   1 C1            -0.0295     1.4258    -0.3438 C.2     
   2 C2            -0.0215     0.0700    -0.6496 C.2     
   3 C3            -1.2339    -0.6206    -0.7283 C.2     
   4 C4            -2.4104     0.0080    -0.5122 C.2     
   5 N5            -2.4683     1.3341    -0.2103 N.pl3   
   6 C6            -1.3206     2.0774    -0.1094 C.2     
   7 C7            -3.5187     2.1870     0.0479 C.2     
   8 C8            -2.9780     3.4164     0.2902 C.2     
   9 N9            -1.6526     3.3217     0.1899 N.2     
  10 C10            1.7481    -1.3127     0.4019 C.3     
  11 C11           -4.9542     1.8381     0.0602 C.ar    
  12 C12            3.0026    -2.1437     0.1254 C.3     
  13 C13            3.4698    -2.8087     1.4217 C.3     
  14 C14            3.7900    -1.7321     2.4606 C.3     
  15 C15            2.5354    -0.9012     2.7371 C.3     
  16 C16            2.0682    -0.2361     1.4409 C.3     
  17 C17            4.2502    -2.3872     3.7374 C.ar    
  18 C18            3.4150    -3.2638     4.4045 C.ar    
  19 C19            3.8371    -3.8646     5.5756 C.ar    
  20 C20           -5.8624     2.6300     0.7656 C.ar    
  21 C21            5.5096    -2.1158     4.2385 C.ar    
  22 C22            5.9317    -2.7166     5.4097 C.ar    
  23 C23            5.0946    -3.5892     6.0795 C.ar    
  24 C24           -5.4097     0.7181    -0.6383 C.ar    
  25 C25           -6.7514     0.3980    -0.6226 C.ar    
  26 C26           -7.6452     1.1841     0.0829 C.ar    
  27 C27           -7.2014     2.2983     0.7729 C.ar    
  28 C28            1.2809    -0.6477    -0.8943 C.3     
  29 C29            1.1933     2.1656    -0.2542 C.1     
  30 N30            2.1633     2.7525    -0.1831 N.1     
  31 H31           -1.2306    -1.6741    -0.9661 H       
  32 H32           -3.3287    -0.5563    -0.5810 H       
  33 H33           -3.5307     4.3136     0.5269 H       
  34 H34            0.9591    -1.9615     0.7823 H       
  35 H35            2.7746    -2.9107    -0.6147 H       
  36 H36            3.7916    -1.4949    -0.2550 H       
  37 H37            2.6809    -3.4575     1.8020 H       
  38 H38            4.3636    -3.4007     1.2247 H       
  39 H39            4.5789    -1.0833     2.0802 H       
  40 H40            1.7464    -1.5500     3.1175 H       
  41 H41            2.7634    -0.1342     3.4773 H       
  42 H42            2.8572     0.4127     1.0605 H       
  43 H43            1.1744     0.3559     1.6379 H       
  44 H44            2.4326    -3.4789     4.0108 H       
  45 H45            3.1844    -4.5489     6.0972 H       
  46 H46           -5.5174     3.4999     1.3046 H       
  47 H47            6.1639    -1.4346     3.7148 H       
  48 H48            6.9158    -2.5048     5.8010 H       
  49 H49            5.4244    -4.0587     6.9945 H       
  50 H50           -4.7132     0.1041    -1.1900 H       
  51 H51           -7.1050    -0.4680    -1.1625 H       
  52 H52           -8.6946     0.9292     0.0916 H       
  53 H53           -7.9043     2.9074     1.3219 H       
  54 H54            1.1379    -1.4083    -1.6619 H       
  55 H55            2.0329     0.0676    -1.2273 H       
@<TRIPOS>BOND
   1    1    2 2
   2    1   29 1
   3    1    6 1
   4    2    3 1
   5    2   28 1
   6    3    4 2
   7    3   31 1
   8    4    5 1
   9    4   32 1
  10    5    6 1
  11    5    7 1
  12    6    9 2
  13    7    8 2
  14    7   11 1
  15    8    9 1
  16    8   33 1
  17   10   12 1
  18   10   16 1
  19   10   28 1
  20   10   34 1
  21   11   20 ar
  22   11   24 ar
  23   12   13 1
  24   12   35 1
  25   12   36 1
  26   13   14 1
  27   13   37 1
  28   13   38 1
  29   14   15 1
  30   14   17 1
  31   14   39 1
  32   15   16 1
  33   15   40 1
  34   15   41 1
  35   16   42 1
  36   16   43 1
  37   17   21 ar
  38   17   18 ar
  39   18   19 ar
  40   18   44 1
  41   19   23 ar
  42   19   45 1
  43   20   27 ar
  44   20   46 1
  45   21   22 ar
  46   21   47 1
  47   22   23 ar
  48   22   48 1
  49   23   49 1
  50   24   25 ar
  51   24   50 1
  52   25   26 ar
  53   25   51 1
  54   26   27 ar
  55   26   52 1
  56   27   53 1
  57   28   54 1
  58   28   55 1
  59   29   30 3

#	End of record

