#	Name: ASD01911433
#	Creating user name:	WinNT
#	Creation time:	15. 06. 2019 19:57

#	Modifying user name:	WinNT
#	Modification time:	15. 06. 2019 19:57

#	Program:	/corina/corina34_cracker 3.40 0067  02.08.2006

@<TRIPOS>MOLECULE
ASD01911433
  41   43    0    0    0
SMALL
NO_CHARGES


@<TRIPOS>ATOM
   1 N1            -0.0068     1.4097    -0.0031 N.2     
   2 N2            -0.0072     0.0098    -0.0452 N.pl3   
   3 C3             1.2422     1.8243     0.0384 C.2     
   4 C4             2.0818     0.6979     0.0241 C.2     
   5 C5             1.2897    -0.4114    -0.0277 C.2     
   6 C6             1.7534    -1.8165    -0.0597 C.ar    
   7 C7             1.6870     3.2395     0.0906 C.ar    
   8 C8            -1.1919    -0.8504    -0.0979 C.3     
   9 C9            -1.6298    -1.0150    -1.5305 C.2     
  10 O10           -2.7025    -1.7674    -1.8222 O.3     
  11 O11           -1.0153    -0.4698    -2.4165 O.2     
  12 C12            0.7472     4.2679     0.0994 C.ar    
  13 C13            3.0457     3.5440     0.1367 C.ar    
  14 C14            3.4539     4.8616     0.1851 C.ar    
  15 C15            2.5167     5.8789     0.1878 C.ar    
  16 C16            1.1663     5.5820     0.1480 C.ar    
  17 C17            0.9279    -2.8148    -0.5767 C.ar    
  18 C18            3.0204    -2.1471     0.4220 C.ar    
  19 C19            3.4471    -3.4586     0.3891 C.ar    
  20 C20            2.6214    -4.4452    -0.1203 C.ar    
  21 C21            1.3662    -4.1230    -0.6041 C.ar    
  22 C22            3.0938    -5.8759    -0.1532 C.3     
  23 C23            4.8155    -3.8174     0.9084 C.3     
  24 H24            3.1615     0.7084     0.0495 H       
  25 H25           -0.9511    -1.8266     0.3229 H       
  26 H26           -1.9974    -0.3950     0.4781 H       
  27 H27           -2.9448    -1.8434    -2.7552 H       
  28 H28           -0.3074     4.0372     0.0679 H       
  29 H29            3.7783     2.7504     0.1350 H       
  30 H30            4.5069     5.0987     0.2212 H       
  31 H31            2.8404     6.9085     0.2261 H       
  32 H32            0.4387     6.3801     0.1499 H       
  33 H33           -0.0524    -2.5645    -0.9544 H       
  34 H34            3.6659    -1.3778     0.8194 H       
  35 H35            0.7262    -4.8976    -1.0001 H       
  36 H36            2.8121    -6.3730     0.7750 H       
  37 H37            2.6329    -6.3913    -0.9958 H       
  38 H38            4.1780    -5.8980    -0.2627 H       
  39 H39            4.7501    -4.0560     1.9700 H       
  40 H40            5.1954    -4.6822     0.3644 H       
  41 H41            5.4907    -2.9736     0.7666 H       
@<TRIPOS>BOND
   1    1    2 1
   2    1    3 2
   3    2    8 1
   4    2    5 1
   5    3    4 1
   6    3    7 1
   7    4    5 2
   8    4   24 1
   9    5    6 1
  10    6   17 ar
  11    6   18 ar
  12    7   12 ar
  13    7   13 ar
  14    8    9 1
  15    8   25 1
  16    8   26 1
  17    9   10 1
  18    9   11 2
  19   10   27 1
  20   12   16 ar
  21   12   28 1
  22   13   14 ar
  23   13   29 1
  24   14   15 ar
  25   14   30 1
  26   15   16 ar
  27   15   31 1
  28   16   32 1
  29   17   21 ar
  30   17   33 1
  31   18   19 ar
  32   18   34 1
  33   19   20 ar
  34   19   23 1
  35   20   21 ar
  36   20   22 1
  37   21   35 1
  38   22   36 1
  39   22   37 1
  40   22   38 1
  41   23   39 1
  42   23   40 1
  43   23   41 1

#	End of record

