#	Name: ASD01940019
#	Creating user name:	WinNT
#	Creation time:	15. 06. 2019 20:11

#	Modifying user name:	WinNT
#	Modification time:	15. 06. 2019 20:11

#	Program:	/corina/corina34_cracker 3.40 0067  02.08.2006

@<TRIPOS>MOLECULE
ASD01940019
  55   57    0    0    0
SMALL
NO_CHARGES


@<TRIPOS>ATOM
   1 C1            -0.4589     1.3114    -0.1157 C.ar    
   2 C2            -0.3955    -0.0743    -0.1871 C.ar    
   3 C3            -1.5553    -0.8217    -0.1343 C.ar    
   4 C4            -2.7838    -0.1889    -0.0104 C.ar    
   5 C5            -2.8480     1.1953     0.0609 C.ar    
   6 C6            -1.6886     1.9438     0.0145 C.ar    
   7 N7             0.7161     2.0696    -0.1692 N.pl3   
   8 C8             0.7165     3.3010    -0.7995 C.2     
   9 C9             1.7494     4.2270    -0.8355 C.2     
  10 C10            1.4407     5.3808    -1.5578 C.2     
  11 N11            0.2580     5.4403    -2.0904 N.2     
  12 S12           -0.5603     4.0058    -1.7112 S.3     
  13 O13            2.3350     6.3936    -1.6966 O.3     
  14 C14            3.0471     4.0129    -0.1748 C.2     
  15 N15            3.2330     4.4221     1.1292 N.pl3   
  16 N16            4.0234     3.4349    -0.8238 N.2     
  17 C17            4.5246     4.2090     1.7868 C.3     
  18 C18            5.4679     5.3640     1.4445 C.3     
  19 C19            4.3216     4.1484     3.3021 C.3     
  20 O20            3.8628     5.4174     3.7724 O.3     
  21 O21           -3.9254    -0.9255     0.0406 O.3     
  22 C22           -3.8254    -2.2698    -0.1299 C.ar    
  23 C23           -3.3462    -3.0656     0.8988 C.ar    
  24 C24           -3.2458    -4.4388     0.7213 C.ar    
  25 C25           -3.6256    -5.0108    -0.4865 C.ar    
  26 C26           -4.1027    -4.2141    -1.5095 C.ar    
  27 C27           -4.2084    -2.8478    -1.3328 C.ar    
  28 N28           -2.7630    -5.2441     1.7553 N.pl3   
  29 C29           -2.4683    -4.6567     3.0646 C.3     
  30 C30           -2.5513    -6.6762     1.5306 C.3     
  31 H31            0.5607    -0.5670    -0.2842 H       
  32 H32           -1.5061    -1.8991    -0.1897 H       
  33 H33           -3.8046     1.6871     0.1570 H       
  34 H34           -1.7387     3.0212     0.0700 H       
  35 H35            1.5302     1.7318     0.2357 H       
  36 H36            2.9065     6.3102    -2.4722 H       
  37 H37            2.5085     4.8511     1.6109 H       
  38 H38            4.8786     3.2938    -0.3884 H       
  39 H39            4.9583     3.2709     1.4405 H       
  40 H40            6.4290     5.2054     1.9337 H       
  41 H41            5.6126     5.4072     0.3650 H       
  42 H42            5.0343     6.3021     1.7908 H       
  43 H43            3.5818     3.3838     3.5392 H       
  44 H44            5.2668     3.9017     3.7857 H       
  45 H45            3.7125     5.4521     4.7270 H       
  46 H46           -3.0513    -2.6182     1.8365 H       
  47 H47           -3.5476    -6.0790    -0.6259 H       
  48 H48           -4.3975    -4.6606    -2.4476 H       
  49 H49           -4.5820    -2.2278    -2.1342 H       
  50 H50           -3.3590    -4.7009     3.6914 H       
  51 H51           -1.6616    -5.2147     3.5399 H       
  52 H52           -2.1652    -3.6175     2.9368 H       
  53 H53           -2.9073    -6.9444     0.5358 H       
  54 H54           -1.4881    -6.9031     1.6094 H       
  55 H55           -3.1010    -7.2466     2.2792 H       
@<TRIPOS>BOND
   1    1    2 ar
   2    1    7 1
   3    1    6 ar
   4    2    3 ar
   5    2   31 1
   6    3    4 ar
   7    3   32 1
   8    4    5 ar
   9    4   21 1
  10    5    6 ar
  11    5   33 1
  12    6   34 1
  13    7    8 1
  14    7   35 1
  15    8    9 2
  16    8   12 1
  17    9   10 1
  18    9   14 1
  19   10   11 2
  20   10   13 1
  21   11   12 1
  22   13   36 1
  23   14   15 1
  24   14   16 2
  25   15   17 1
  26   15   37 1
  27   16   38 1
  28   17   18 1
  29   17   19 1
  30   17   39 1
  31   18   40 1
  32   18   41 1
  33   18   42 1
  34   19   20 1
  35   19   43 1
  36   19   44 1
  37   20   45 1
  38   21   22 1
  39   22   23 ar
  40   22   27 ar
  41   23   24 ar
  42   23   46 1
  43   24   25 ar
  44   24   28 1
  45   25   26 ar
  46   25   47 1
  47   26   27 ar
  48   26   48 1
  49   27   49 1
  50   28   29 1
  51   28   30 1
  52   29   50 1
  53   29   51 1
  54   29   52 1
  55   30   53 1
  56   30   54 1
  57   30   55 1

#	End of record

