#	Name: ASD01350049
#	Creating user name:	WinNT
#	Creation time:	15. 06. 2019 19:16

#	Modifying user name:	WinNT
#	Modification time:	15. 06. 2019 19:16

#	Program:	/corina/corina34_cracker 3.40 0067  02.08.2006

@<TRIPOS>MOLECULE
ASD01350049
  28   29    0    0    0
SMALL
NO_CHARGES


@<TRIPOS>ATOM
   1 C1            -0.0173     1.4248     0.0099 C.3     
   2 O2             0.0021    -0.0041     0.0020 O.3     
   3 C3             0.6060    -0.6073    -1.0561 C.ar    
   4 C4             1.1672     0.1594    -2.0638 C.ar    
   5 C5             1.7816    -0.4517    -3.1403 C.ar    
   6 C6             1.8404    -1.8376    -3.2179 C.ar    
   7 C7             1.2822    -2.6143    -2.2141 C.ar    
   8 C8             0.6665    -2.0023    -1.1255 C.ar    
   9 C9             0.0674    -2.8277    -0.0485 C.ar    
  10 C10           -0.8056    -3.8663    -0.3671 C.ar    
  11 C11           -1.3603    -4.6312     0.6385 C.ar    
  12 C12           -1.0509    -4.3684     1.9621 C.ar    
  13 C13           -0.1846    -3.3376     2.2838 C.ar    
  14 C14            0.3802    -2.5708     1.2852 C.ar    
  15 Cl15          -1.7521    -5.3344     3.2226 Cl      
  16 N16            2.4636    -2.4505    -4.3108 N.pl3   
  17 H17            1.0053     1.8021     0.0021 H       
  18 H18           -0.5445     1.7859    -0.8732 H       
  19 H19           -0.5275     1.7763     0.9067 H       
  20 H20            1.1242     1.2371    -2.0084 H       
  21 H21            2.2172     0.1502    -3.9241 H       
  22 H22            1.3277    -3.6916    -2.2749 H       
  23 H23           -1.0478    -4.0718    -1.3993 H       
  24 H24           -2.0372    -5.4360     0.3927 H       
  25 H25            0.0530    -3.1361     3.3179 H       
  26 H26            1.0559    -1.7669     1.5372 H       
  27 H27            2.8541    -1.9077    -5.0136 H       
  28 H28            2.5051    -3.4180    -4.3656 H       
@<TRIPOS>BOND
   1    1    2 1
   2    1   17 1
   3    1   18 1
   4    1   19 1
   5    2    3 1
   6    3    4 ar
   7    3    8 ar
   8    4    5 ar
   9    4   20 1
  10    5    6 ar
  11    5   21 1
  12    6    7 ar
  13    6   16 1
  14    7    8 ar
  15    7   22 1
  16    8    9 1
  17    9   10 ar
  18    9   14 ar
  19   10   11 ar
  20   10   23 1
  21   11   12 ar
  22   11   24 1
  23   12   13 ar
  24   12   15 1
  25   13   14 ar
  26   13   25 1
  27   14   26 1
  28   16   27 1
  29   16   28 1

#	End of record

