#	Name: ASD01914822
#	Creating user name:	WinNT
#	Creation time:	15. 06. 2019 20:04

#	Modifying user name:	WinNT
#	Modification time:	15. 06. 2019 20:04

#	Program:	/corina/corina34_cracker 3.40 0067  02.08.2006

@<TRIPOS>MOLECULE
ASD01914822
  37   37    0    0    0
SMALL
NO_CHARGES


@<TRIPOS>ATOM
   1 C1            -0.0315     1.3903    -0.2179 C.2     
   2 C2            -0.1816     0.1532    -0.8011 C.2     
   3 C3            -1.3361    -0.6156    -0.5384 C.2     
   4 C4            -1.5005    -1.9706    -1.1771 C.3     
   5 C5            -2.8275    -2.5874    -0.7304 C.3     
   6 C6            -2.9944    -3.9631    -1.3789 C.3     
   7 C7            -4.3214    -4.5799    -0.9321 C.3     
   8 O8            -2.1970    -0.1849     0.2025 O.2     
   9 C9             1.5690    -1.5336    -1.3797 C.ar    
  10 C10            0.8697    -0.3727    -1.7058 C.ar    
  11 C11            1.1749     0.2873    -2.8992 C.ar    
  12 C12            2.1639    -0.2443    -3.7092 C.ar    
  13 C13            2.8121    -1.4004    -3.3152 C.ar    
  14 N14            2.5024    -2.0016    -2.1826 N.ar    
  15 N15            1.1352     2.0742    -0.3645 N.pl3   
  16 C16            2.4157     1.3740    -0.2374 C.3     
  17 C17            1.1111     3.5111    -0.6493 C.3     
  18 H18           -0.8415     1.8202     0.3525 H       
  19 H19           -1.4964    -1.8638    -2.2619 H       
  20 H20           -0.6781    -2.6180    -0.8727 H       
  21 H21           -2.8316    -2.6941     0.3544 H       
  22 H22           -3.6498    -1.9400    -1.0348 H       
  23 H23           -2.9903    -3.8563    -2.4636 H       
  24 H24           -2.1720    -4.6105    -1.0744 H       
  25 H25           -4.4403    -5.5599    -1.3941 H       
  26 H26           -4.3254    -4.6866     0.1527 H       
  27 H27           -5.1437    -3.9325    -1.2366 H       
  28 H28            1.3466    -2.0514    -0.4584 H       
  29 H29            0.6523     1.1890    -3.1826 H       
  30 H30            2.4261     0.2387    -4.6389 H       
  31 H31            3.5838    -1.8180    -3.9449 H       
  32 H32            2.2341     0.3158    -0.0498 H       
  33 H33            2.9847     1.4870    -1.1602 H       
  34 H34            2.9811     1.7983     0.5923 H       
  35 H35            1.1145     4.0674     0.2880 H       
  36 H36            1.9903     3.7802    -1.2348 H       
  37 H37            0.2106     3.7546    -1.2132 H       
@<TRIPOS>BOND
   1    1    2 2
   2    1   15 1
   3    1   18 1
   4    2    3 1
   5    2   10 1
   6    3    4 1
   7    3    8 2
   8    4    5 1
   9    4   19 1
  10    4   20 1
  11    5    6 1
  12    5   21 1
  13    5   22 1
  14    6    7 1
  15    6   23 1
  16    6   24 1
  17    7   25 1
  18    7   26 1
  19    7   27 1
  20    9   10 ar
  21    9   14 ar
  22    9   28 1
  23   10   11 ar
  24   11   12 ar
  25   11   29 1
  26   12   13 ar
  27   12   30 1
  28   13   14 ar
  29   13   31 1
  30   15   16 1
  31   15   17 1
  32   16   32 1
  33   16   33 1
  34   16   34 1
  35   17   35 1
  36   17   36 1
  37   17   37 1

#	End of record

