#	Name: ASD01030018
#	Creating user name:	WinNT
#	Creation time:	15. 06. 2019 18:58

#	Modifying user name:	WinNT
#	Modification time:	15. 06. 2019 18:58

#	Program:	/corina/corina34_cracker 3.40 0067  02.08.2006

@<TRIPOS>MOLECULE
ASD01030018
  31   31    0    0    0
SMALL
NO_CHARGES


@<TRIPOS>ATOM
   1 C1            -0.0179     1.4674     0.0101 C.2     
   2 C2             0.0021    -0.0041     0.0020 C.ar    
   3 C3             1.2205    -0.6904    -0.0133 C.ar    
   4 C4             1.2309    -2.0692    -0.0203 C.ar    
   5 C5             0.0396    -2.7739    -0.0123 C.ar    
   6 C6            -1.1702    -2.1019     0.0024 C.ar    
   7 C7            -1.1972    -0.7234     0.0155 C.ar    
   8 O8             1.0238     2.0879     0.0035 O.2     
   9 P9            -1.6010     2.3530     0.0224 P.3     
  10 O10           -1.3283     3.9397     0.0298 O.3     
  11 O11           -2.4461     1.9598    -1.2903 O.3     
  12 O12           -2.3664     1.9784     1.2325 O.2     
  13 C13           -2.3726     4.9084     0.1444 C.3     
  14 C14           -1.7694     6.3142     0.1180 C.3     
  15 C15           -3.7821     2.4117    -1.5201 C.3     
  16 C16           -4.2860     1.8567    -2.8539 C.3     
  17 H17            2.1508    -0.1419    -0.0200 H       
  18 H18            2.1709    -2.6007    -0.0325 H       
  19 H19            0.0543    -3.8537    -0.0178 H       
  20 H20           -2.0956    -2.6588     0.0080 H       
  21 H21           -2.1420    -0.2004     0.0318 H       
  22 H22           -3.0664     4.7950    -0.6886 H       
  23 H23           -2.9051     4.7591     1.0837 H       
  24 H24           -1.0756     6.4276     0.9510 H       
  25 H25           -1.2369     6.4635    -0.8213 H       
  26 H26           -2.5660     7.0531     0.2055 H       
  27 H27           -4.4275     2.0625    -0.7141 H       
  28 H28           -3.7969     3.5012    -1.5511 H       
  29 H29           -3.6406     2.2059    -3.6598 H       
  30 H30           -4.2713     0.7672    -2.8228 H       
  31 H31           -5.3051     2.2014    -3.0292 H       
@<TRIPOS>BOND
   1    1    2 1
   2    1    8 2
   3    1    9 1
   4    2    3 ar
   5    2    7 ar
   6    3    4 ar
   7    3   17 1
   8    4    5 ar
   9    4   18 1
  10    5    6 ar
  11    5   19 1
  12    6    7 ar
  13    6   20 1
  14    7   21 1
  15    9   10 1
  16    9   11 1
  17    9   12 2
  18   10   13 1
  19   11   15 1
  20   13   14 1
  21   13   22 1
  22   13   23 1
  23   14   24 1
  24   14   25 1
  25   14   26 1
  26   15   16 1
  27   15   27 1
  28   15   28 1
  29   16   29 1
  30   16   30 1
  31   16   31 1

#	End of record

