#	Name: ASD01001252
#	Creating user name:	WinNT
#	Creation time:	15. 06. 2019 18:55

#	Modifying user name:	WinNT
#	Modification time:	15. 06. 2019 18:55

#	Program:	/corina/corina34_cracker 3.40 0067  02.08.2006

@<TRIPOS>MOLECULE
ASD01001252
  61   64    0    0    0
SMALL
NO_CHARGES


@<TRIPOS>ATOM
   1 C1            -0.4707     0.4936     0.4438 C.ar    
   2 C2            -0.2897    -0.8800     0.4410 C.ar    
   3 C3             0.9828    -1.4121     0.3545 C.ar    
   4 C4             2.0862    -0.5631     0.2694 C.ar    
   5 C5             1.8968     0.8216     0.2722 C.ar    
   6 C6             0.6192     1.3409     0.3597 C.ar    
   7 F7             2.9604     1.6505     0.1901 F       
   8 F8            -1.3594    -1.7010     0.5235 F       
   9 C9             3.4498    -1.1253     0.1772 C.2     
  10 C10            4.4534    -1.1500     1.2997 C.3     
  11 N11            5.6691    -1.7933     0.7831 N.am    
  12 C12            5.3767    -2.1362    -0.6153 C.3     
  13 C13            3.9681    -1.6861    -0.9002 C.2     
  14 C14            6.3415    -1.4264    -1.5297 C.ar    
  15 C15            5.4845    -3.6495    -0.8135 C.3     
  16 O16            5.1985    -3.9730    -2.1757 O.3     
  17 C17            6.2533    -1.6019    -2.8981 C.ar    
  18 C18            7.1384    -0.9509    -3.7369 C.ar    
  19 C19            8.1113    -0.1238    -3.2074 C.ar    
  20 C20            8.1989     0.0524    -1.8392 C.ar    
  21 C21            7.3111    -0.5953    -1.0006 C.ar    
  22 C22            6.8161    -2.0210     1.4533 C.2     
  23 N23            6.9748    -1.5371     2.7012 N.am    
  24 O24            7.7075    -2.6629     0.9322 O.2     
  25 C25            8.1126    -1.9709     3.5158 C.3     
  26 C26            8.9683    -0.7567     3.8874 C.3     
  27 C27           10.1204    -1.2072     4.7883 C.3     
  28 N28            9.5791    -1.8363     5.9997 N.3     
  29 C29            8.7927    -3.0321     5.6710 C.3     
  30 C30            7.6009    -2.6361     4.7965 C.3     
  31 C31           10.6518    -2.1567     6.9509 C.3     
  32 F32            6.8634    -3.7783     4.4670 F       
  33 C33            6.0096    -0.5774     3.2430 C.3     
  34 H34           -1.4675     0.9044     0.5074 H       
  35 H35            1.1226    -2.4830     0.3532 H       
  36 H36            0.4714     2.4107     0.3620 H       
  37 H37            4.6790    -0.1322     1.6178 H       
  38 H38            4.0580    -1.7237     2.1380 H       
  39 H39            3.4600    -1.7987    -1.8466 H       
  40 H40            6.4944    -3.9772    -0.5665 H       
  41 H41            4.7698    -4.1531    -0.1627 H       
  42 H42            5.2484    -4.9181    -2.3743 H       
  43 H43            5.4932    -2.2481    -3.3117 H       
  44 H44            7.0699    -1.0886    -4.8059 H       
  45 H45            8.8032     0.3843    -3.8628 H       
  46 H46            8.9593     0.6983    -1.4255 H       
  47 H47            7.3795    -0.4575     0.0684 H       
  48 H48            8.7152    -2.6819     2.9506 H       
  49 H49            9.3705    -0.3039     2.9812 H       
  50 H50            8.3552    -0.0280     4.4177 H       
  51 H51           10.7410    -1.9255     4.2524 H       
  52 H52           10.7234    -0.3428     5.0663 H       
  53 H53            9.4195    -3.7418     5.1310 H       
  54 H54            8.4314    -3.4932     6.5902 H       
  55 H55            6.9663    -1.9370     5.3411 H       
  56 H56           11.1711    -1.2413     7.2346 H       
  57 H57           10.2232    -2.6214     7.8388 H       
  58 H58           11.3569    -2.8450     6.4849 H       
  59 H59            5.1407    -1.1128     3.6257 H       
  60 H60            6.4736    -0.0127     4.0517 H       
  61 H61            5.6964     0.1072     2.4548 H       
@<TRIPOS>BOND
   1    1    2 ar
   2    1    6 ar
   3    1   34 1
   4    2    3 ar
   5    2    8 1
   6    3    4 ar
   7    3   35 1
   8    4    5 ar
   9    4    9 1
  10    5    6 ar
  11    5    7 1
  12    6   36 1
  13    9   10 1
  14    9   13 2
  15   10   11 1
  16   10   37 1
  17   10   38 1
  18   11   12 1
  19   11   22 am
  20   12   13 1
  21   12   15 1
  22   12   14 1
  23   13   39 1
  24   14   17 ar
  25   14   21 ar
  26   15   16 1
  27   15   40 1
  28   15   41 1
  29   16   42 1
  30   17   18 ar
  31   17   43 1
  32   18   19 ar
  33   18   44 1
  34   19   20 ar
  35   19   45 1
  36   20   21 ar
  37   20   46 1
  38   21   47 1
  39   22   23 am
  40   22   24 2
  41   23   25 1
  42   23   33 1
  43   25   26 1
  44   25   30 1
  45   25   48 1
  46   26   27 1
  47   26   49 1
  48   26   50 1
  49   27   28 1
  50   27   51 1
  51   27   52 1
  52   28   29 1
  53   28   31 1
  54   29   30 1
  55   29   53 1
  56   29   54 1
  57   30   32 1
  58   30   55 1
  59   31   56 1
  60   31   57 1
  61   31   58 1
  62   33   59 1
  63   33   60 1
  64   33   61 1

#	End of record

