#	Name: ASD01028768
#	Creating user name:	WinNT
#	Creation time:	15. 06. 2019 18:58

#	Modifying user name:	WinNT
#	Modification time:	15. 06. 2019 18:58

#	Program:	/corina/corina34_cracker 3.40 0067  02.08.2006

@<TRIPOS>MOLECULE
ASD01028768
  32   34    0    0    0
SMALL
NO_CHARGES


@<TRIPOS>ATOM
   1 N1            -0.0157     1.3058     0.0092 N.ar    
   2 C2             0.0021    -0.0041     0.0020 C.ar    
   3 C3             1.2047    -0.7196    -0.0129 C.ar    
   4 C4             2.3983    -0.0476    -0.0206 C.ar    
   5 C5             2.3699     1.3597    -0.0132 C.ar    
   6 N6             3.4995     2.0727    -0.0197 N.ar    
   7 C7             3.4781     3.3843    -0.0124 C.ar    
   8 C8             2.2813     4.0950     0.0022 C.ar    
   9 C9             1.0888     3.4259     0.0095 C.ar    
  10 C10            1.1149     2.0165     0.0022 C.ar    
  11 Cl11          -0.4172     4.2892     0.0284 Cl      
  12 O12            1.1884    -2.0780    -0.0191 O.3     
  13 C13           -0.0924    -2.7115    -0.0099 C.3     
  14 O14            0.7242    -4.6432     1.1954 O.3     
  15 C15            0.0898    -4.2305    -0.0188 C.3     
  16 C16           -1.2786    -4.9096    -0.1266 C.3     
  17 O17           -1.1091    -6.3264    -0.0219 O.3     
  18 C18           -0.4747    -6.7390     1.1923 C.3     
  19 C19            0.8937    -6.0600     1.3000 C.3     
  20 H20           -0.9331    -0.5443     0.0081 H       
  21 H21            3.3360    -0.5833    -0.0318 H       
  22 H22            4.4122     3.9262    -0.0177 H       
  23 H23            2.2946     5.1749     0.0082 H       
  24 H24           -0.6374    -2.4162     0.8867 H       
  25 H25           -0.6544    -2.4077    -0.8931 H       
  26 H26            0.7083    -4.5182    -0.8690 H       
  27 H27           -1.9236    -4.5593     0.6793 H       
  28 H28           -1.7310    -4.6669    -1.0881 H       
  29 H29           -1.0926    -6.4503     2.0425 H       
  30 H30           -0.3448    -7.8212     1.1859 H       
  31 H31            1.5387    -6.4102     0.4941 H       
  32 H32            1.3462    -6.3027     2.2616 H       
@<TRIPOS>BOND
   1    1    2 ar
   2    1   10 ar
   3    2    3 ar
   4    2   20 1
   5    3    4 ar
   6    3   12 1
   7    4    5 ar
   8    4   21 1
   9    5    6 ar
  10    5   10 ar
  11    6    7 ar
  12    7    8 ar
  13    7   22 1
  14    8    9 ar
  15    8   23 1
  16    9   10 ar
  17    9   11 1
  18   12   13 1
  19   13   15 1
  20   13   24 1
  21   13   25 1
  22   14   15 1
  23   14   19 1
  24   15   16 1
  25   15   26 1
  26   16   17 1
  27   16   27 1
  28   16   28 1
  29   17   18 1
  30   18   19 1
  31   18   29 1
  32   18   30 1
  33   19   31 1
  34   19   32 1

#	End of record

