#	Name: ASD03090331
#	Creating user name:	WinNT
#	Creation time:	15. 06. 2019 20:28

#	Modifying user name:	WinNT
#	Modification time:	15. 06. 2019 20:28

#	Program:	/corina/corina34_cracker 3.40 0067  02.08.2006

@<TRIPOS>MOLECULE
ASD03090331
  49   51    0    0    0
SMALL
NO_CHARGES


@<TRIPOS>ATOM
   1 N1             0.4463     1.5068     1.4891 N.ar    
   2 C2             0.4098     0.1885     1.4543 C.ar    
   3 C3             1.5363    -0.5435     1.1402 C.ar    
   4 C4             2.7276     0.1332     0.8562 C.ar    
   5 C5             2.7203     1.5312     0.9044 C.ar    
   6 C6             1.5480     2.1834     1.2281 C.ar    
   7 C7             3.9614    -0.6096     0.5147 C.2     
   8 N8             5.7405    -3.4558    -0.5283 N.pl3   
   9 C9             4.8137    -4.4457    -0.8724 C.ar    
  10 C10            5.1108    -5.7846    -0.6444 C.ar    
  11 C11            4.1998    -6.7674    -0.9814 C.ar    
  12 C12            2.9861    -6.4259    -1.5485 C.ar    
  13 C13            2.6783    -5.0814    -1.7817 C.ar    
  14 C14            3.5981    -4.0904    -1.4349 C.ar    
  15 N15            4.0259    -1.8651     0.1192 N.2     
  16 C16            5.2972    -2.2031    -0.1000 C.2     
  17 N17            6.0652    -1.1677     0.1522 N.2     
  18 N18            5.2201    -0.1183     0.5477 N.pl3   
  19 C19            5.6235     1.2373     0.9298 C.3     
  20 C20            5.7259     2.1109    -0.3221 C.3     
  21 C21            6.1409     3.5053     0.0710 C.2     
  22 N22            6.2957     4.4538    -0.8739 N.am    
  23 C23            6.6992     5.8094    -0.4918 C.3     
  24 O24            6.3356     3.7739     1.2375 O.2     
  25 C25            6.0605     4.1294    -2.2830 C.3     
  26 F26            2.0984    -7.3898    -1.8775 F       
  27 C27           -0.8799    -0.5277     1.7623 C.3     
  28 C28            1.4224    -4.7228    -2.3689 C.1     
  29 N29            0.4261    -4.4383    -2.8347 N.1     
  30 H30            1.4992    -1.6225     1.1143 H       
  31 H31            3.6188     2.0916     0.6923 H       
  32 H32            1.5324     3.2626     1.2680 H       
  33 H33            6.6910    -3.6399    -0.5872 H       
  34 H34            6.0576    -6.0576    -0.2023 H       
  35 H35            4.4369    -7.8056    -0.8016 H       
  36 H36            3.3667    -3.0505    -1.6123 H       
  37 H37            4.8819     1.6596     1.6079 H       
  38 H38            6.5924     1.2012     1.4279 H       
  39 H39            6.4676     1.6886    -1.0001 H       
  40 H40            4.7571     2.1470    -0.8202 H       
  41 H41            7.7868     5.8809    -0.5009 H       
  42 H42            6.2820     6.5257    -1.1996 H       
  43 H43            6.3289     6.0300     0.5093 H       
  44 H44            5.0146     4.3135    -2.5286 H       
  45 H45            6.6965     4.7536    -2.9107 H       
  46 H46            6.2955     3.0795    -2.4582 H       
  47 H47           -1.4469    -0.6670     0.8419 H       
  48 H48           -0.6594    -1.4996     2.2038 H       
  49 H49           -1.4663     0.0655     2.4641 H       
@<TRIPOS>BOND
   1    1    2 ar
   2    1    6 ar
   3    2    3 ar
   4    2   27 1
   5    3    4 ar
   6    3   30 1
   7    4    5 ar
   8    4    7 1
   9    5    6 ar
  10    5   31 1
  11    6   32 1
  12    7   15 2
  13    7   18 1
  14    8    9 1
  15    8   16 1
  16    8   33 1
  17    9   10 ar
  18    9   14 ar
  19   10   11 ar
  20   10   34 1
  21   11   12 ar
  22   11   35 1
  23   12   13 ar
  24   12   26 1
  25   13   14 ar
  26   13   28 1
  27   14   36 1
  28   15   16 1
  29   16   17 2
  30   17   18 1
  31   18   19 1
  32   19   20 1
  33   19   37 1
  34   19   38 1
  35   20   21 1
  36   20   39 1
  37   20   40 1
  38   21   22 am
  39   21   24 2
  40   22   23 1
  41   22   25 1
  42   23   41 1
  43   23   42 1
  44   23   43 1
  45   25   44 1
  46   25   45 1
  47   25   46 1
  48   27   47 1
  49   27   48 1
  50   27   49 1
  51   28   29 3

#	End of record

