#	Name: ASD01870393
#	Creating user name:	WinNT
#	Creation time:	15. 06. 2019 19:39

#	Modifying user name:	WinNT
#	Modification time:	15. 06. 2019 19:39

#	Program:	/corina/corina34_cracker 3.40 0067  02.08.2006

@<TRIPOS>MOLECULE
ASD01870393
  43   46    0    0    0
SMALL
NO_CHARGES


@<TRIPOS>ATOM
   1 C1            -0.0167     1.3795     0.0096 C.ar    
   2 C2             0.0021    -0.0041     0.0020 C.ar    
   3 C3             1.2050    -0.6837    -0.0138 C.ar    
   4 C4             2.3962     0.0183    -0.0225 C.ar    
   5 C5             2.3837     1.3985    -0.0148 C.ar    
   6 C6             1.1751     2.0855     0.0020 C.ar    
   7 O7             1.1842     3.4398     0.0104 O.3     
   8 C8             0.0932     4.1247     0.4286 C.ar    
   9 C9            -1.1567     3.5282     0.4570 C.ar    
  10 C10           -1.3379     2.0989     0.0198 C.3     
  11 C11            0.2358     5.4468     0.8342 C.ar    
  12 C12           -0.8638     6.1627     1.2626 C.ar    
  13 C13           -2.1103     5.5649     1.2889 C.ar    
  14 C14           -2.2554     4.2510     0.8870 C.ar    
  15 C15           -1.9299     2.0706    -1.3657 C.2     
  16 O16           -1.3351     1.5204    -2.2682 O.2     
  17 N17           -3.1202     2.6569    -1.6020 N.am    
  18 C18           -3.6663     2.6309    -2.8800 C.2     
  19 S19           -2.9399     1.8930    -4.2405 S.3     
  20 C20           -4.3027     2.3795    -5.2452 C.2     
  21 C21           -5.1677     3.0434    -4.4760 C.2     
  22 N22           -4.8030     3.1577    -3.2126 N.2     
  23 C23           -6.4591     3.6117    -5.0055 C.3     
  24 C24           -6.1986     4.9929    -5.6100 C.3     
  25 C25           -7.0219     2.6817    -6.0822 C.3     
  26 H26           -0.9270    -0.5548     0.0088 H       
  27 H27            1.2148    -1.7637    -0.0189 H       
  28 H28            3.3363    -0.5132    -0.0351 H       
  29 H29            3.3146     1.9460    -0.0216 H       
  30 H30           -2.0155     1.5963     0.7100 H       
  31 H31            1.2090     5.9146     0.8143 H       
  32 H32           -0.7505     7.1895     1.5776 H       
  33 H33           -2.9707     6.1251     1.6239 H       
  34 H34           -3.2301     3.7863     0.9087 H       
  35 H35           -3.5959     3.0970    -0.8802 H       
  36 H36           -4.4180     2.1760    -6.2996 H       
  37 H37           -7.1777     3.7013    -4.1909 H       
  38 H38           -5.7976     5.6554    -4.8430 H       
  39 H39           -5.4799     4.9033    -6.4247 H       
  40 H40           -7.1326     5.4039    -5.9931 H       
  41 H41           -7.2075     1.6977    -5.6515 H       
  42 H42           -7.9560     3.0927    -6.4652 H       
  43 H43           -6.3033     2.5921    -6.8968 H       
@<TRIPOS>BOND
   1    1    2 ar
   2    1    6 ar
   3    1   10 1
   4    2    3 ar
   5    2   26 1
   6    3    4 ar
   7    3   27 1
   8    4    5 ar
   9    4   28 1
  10    5    6 ar
  11    5   29 1
  12    6    7 1
  13    7    8 1
  14    8   11 ar
  15    8    9 ar
  16    9   10 1
  17    9   14 ar
  18   10   15 1
  19   10   30 1
  20   11   12 ar
  21   11   31 1
  22   12   13 ar
  23   12   32 1
  24   13   14 ar
  25   13   33 1
  26   14   34 1
  27   15   16 2
  28   15   17 am
  29   17   18 1
  30   17   35 1
  31   18   19 1
  32   18   22 2
  33   19   20 1
  34   20   21 2
  35   20   36 1
  36   21   22 1
  37   21   23 1
  38   23   24 1
  39   23   25 1
  40   23   37 1
  41   24   38 1
  42   24   39 1
  43   24   40 1
  44   25   41 1
  45   25   42 1
  46   25   43 1

#	End of record

