#	Name: ASD01148111
#	Creating user name:	WinNT
#	Creation time:	15. 06. 2019 19:02

#	Modifying user name:	WinNT
#	Modification time:	15. 06. 2019 19:02

#	Program:	/corina/corina34_cracker 3.40 0067  02.08.2006

@<TRIPOS>MOLECULE
ASD01148111
  41   42    0    0    0
SMALL
NO_CHARGES


@<TRIPOS>ATOM
   1 C1            -0.0166     1.3749     0.0096 C.ar    
   2 C2             0.0021    -0.0041     0.0020 C.ar    
   3 C3             1.1753     2.0867     0.0020 C.ar    
   4 C4             2.3892     1.4132    -0.0137 C.ar    
   5 C5             2.4142     0.0343    -0.0214 C.ar    
   6 C6             1.2192    -0.6830    -0.0133 C.ar    
   7 C7             1.2428    -2.1664    -0.0210 C.ar    
   8 C8             0.4877    -2.8832     0.9068 C.ar    
   9 C9            -1.3322     2.1098     0.0198 C.3     
  10 C10           -2.1351     1.7356    -1.2277 C.3     
  11 C11           -2.1233     1.7221     1.2707 C.3     
  12 C12            3.6807     2.1896    -0.0228 C.3     
  13 C13            4.5020     1.8279     1.2163 C.3     
  14 C14            4.4767     1.8405    -1.2820 C.3     
  15 O15            1.1537     3.4453     0.0096 O.3     
  16 C16            2.0149    -2.8485    -0.9590 C.ar    
  17 C17            2.0337    -4.2288    -0.9623 C.ar    
  18 C18            0.5140    -4.2652     0.8943 C.ar    
  19 C19            1.2876    -4.9361    -0.0372 C.ar    
  20 Cl20          -0.4247    -5.1606     2.0479 Cl      
  21 Cl21          -0.4825    -2.0419     2.0750 Cl      
  22 H22           -0.9255    -0.5573     0.0083 H       
  23 H23            3.3588    -0.4891    -0.0339 H       
  24 H24           -1.1482     3.1841     0.0248 H       
  25 H25           -2.3191     0.6613    -1.2326 H       
  26 H26           -3.0867     2.2672    -1.2203 H       
  27 H27           -1.5716     2.0119    -2.1188 H       
  28 H28           -3.0749     2.2536     1.2781 H       
  29 H29           -2.3073     0.6477     1.2658 H       
  30 H30           -1.5513     1.9886     2.1595 H       
  31 H31            3.4627     3.2575    -0.0152 H       
  32 H32            4.7200     0.7599     1.2087 H       
  33 H33            5.4362     2.3894     1.2097 H       
  34 H34            3.9350     2.0765     2.1134 H       
  35 H35            3.8916     2.0982    -2.1648 H       
  36 H36            5.4109     2.4021    -1.2886 H       
  37 H37            4.6947     0.7726    -1.2896 H       
  38 H38            1.1559     3.8337     0.8951 H       
  39 H39            2.5976    -2.2981    -1.6827 H       
  40 H40            2.6321    -4.7577    -1.6893 H       
  41 H41            1.3054    -6.0159    -0.0442 H       
@<TRIPOS>BOND
   1    1    2 ar
   2    1    3 ar
   3    1    9 1
   4    2    6 ar
   5    2   22 1
   6    3    4 ar
   7    3   15 1
   8    4    5 ar
   9    4   12 1
  10    5    6 ar
  11    5   23 1
  12    6    7 1
  13    7    8 ar
  14    7   16 ar
  15    8   21 1
  16    8   18 ar
  17    9   10 1
  18    9   11 1
  19    9   24 1
  20   10   25 1
  21   10   26 1
  22   10   27 1
  23   11   28 1
  24   11   29 1
  25   11   30 1
  26   12   13 1
  27   12   14 1
  28   12   31 1
  29   13   32 1
  30   13   33 1
  31   13   34 1
  32   14   35 1
  33   14   36 1
  34   14   37 1
  35   15   38 1
  36   16   17 ar
  37   16   39 1
  38   17   19 ar
  39   17   40 1
  40   18   20 1
  41   18   19 ar
  42   19   41 1

#	End of record

