#	Name: ASD03430274
#	Creating user name:	WinNT
#	Creation time:	15. 06. 2019 20:40

#	Modifying user name:	WinNT
#	Modification time:	15. 06. 2019 20:40

#	Program:	/corina/corina34_cracker 3.40 0067  02.08.2006

@<TRIPOS>MOLECULE
ASD03430274
  56   60    0    0    0
SMALL
NO_CHARGES


@<TRIPOS>ATOM
   1 C1            -0.0167     1.3777     0.0096 C.ar    
   2 C2             0.0021    -0.0041     0.0020 C.ar    
   3 C3             1.2027    -0.6812    -0.0127 C.ar    
   4 C4             2.4094     0.0139    -0.0109 C.ar    
   5 C5             2.3856     1.4048    -0.0084 C.ar    
   6 C6             1.1789     2.0826     0.0020 C.ar    
   7 O7             3.4714    -0.8400     0.0012 O.3     
   8 C8             1.5517    -2.1449    -0.0448 C.3     
   9 C9             3.0379    -2.1445    -0.4292 C.3     
  10 C10            0.0904    -3.9121    -0.2961 C.ar    
  11 C11            0.7196    -2.9098    -1.0308 C.ar    
  12 C12            1.3181    -2.8158     1.2782 C.2     
  13 N13            0.4606    -3.8302     1.0485 N.am    
  14 O14            1.8055    -2.5057     2.3446 O.2     
  15 C15            0.5034    -2.7938    -2.3853 C.ar    
  16 C16           -0.3444    -3.6772    -3.0303 C.ar    
  17 C17           -0.9739    -4.6762    -2.3111 C.ar    
  18 C18           -0.7610    -4.7964    -0.9531 C.ar    
  19 C19            2.4310     4.1035    -0.0039 C.3     
  20 O20            1.1647     3.4415     0.0043 O.3     
  21 C21           -0.0261    -4.7409     2.0877 C.3     
  22 N22            0.8795    -5.8928     2.1925 N.3     
  23 C23            0.8099    -6.4974     3.5301 C.3     
  24 C24            1.7051    -7.7380     3.5735 C.3     
  25 N25            3.0849    -7.3550     3.2430 N.3     
  26 C26            3.1545    -6.7504     1.9054 C.3     
  27 C27            2.2593    -5.5098     1.8620 C.3     
  28 C28            3.9905    -8.5070     3.3479 C.3     
  29 C29           -1.3302     2.1164     0.0198 C.3     
  30 H30           -0.9267    -0.5551     0.0080 H       
  31 H31            3.3130     1.9583    -0.0143 H       
  32 H32            3.1590    -2.2566    -1.5067 H       
  33 H33            3.5762    -2.9272     0.1053 H       
  34 H34            0.9957    -2.0125    -2.9452 H       
  35 H35           -0.5142    -3.5862    -4.0930 H       
  36 H36           -1.6356    -5.3655    -2.8144 H       
  37 H37           -1.2562    -5.5794    -0.3980 H       
  38 H38            2.9845     3.8179    -0.8985 H       
  39 H39            2.2769     5.1826    -0.0011 H       
  40 H40            2.9976     3.8151     0.8814 H       
  41 H41           -0.0599    -4.2172     3.0430 H       
  42 H42           -1.0262    -5.0875     1.8277 H       
  43 H43            1.1510    -5.7767     4.2732 H       
  44 H44           -0.2193    -6.7839     3.7465 H       
  45 H45            1.6776    -8.1716     4.5732 H       
  46 H46            1.3475    -8.4700     2.8494 H       
  47 H47            4.1837    -6.4639     1.6890 H       
  48 H48            2.8134    -7.4712     1.1623 H       
  49 H49            2.2868    -5.0763     0.8623 H       
  50 H50            2.6168    -4.7778     2.5862 H       
  51 H51            3.6689    -9.2860     2.6567 H       
  52 H52            5.0048    -8.1957     3.0981 H       
  53 H53            3.9696    -8.8939     4.3667 H       
  54 H54           -1.6420     2.2889     1.0499 H       
  55 H55           -1.2131     3.0730    -0.4894 H       
  56 H56           -2.0855     1.5215    -0.4937 H       
@<TRIPOS>BOND
   1    1    2 ar
   2    1    6 ar
   3    1   29 1
   4    2    3 ar
   5    2   30 1
   6    3    4 ar
   7    3    8 1
   8    4    5 ar
   9    4    7 1
  10    5    6 ar
  11    5   31 1
  12    6   20 1
  13    7    9 1
  14    8    9 1
  15    8   11 1
  16    8   12 1
  17    9   32 1
  18    9   33 1
  19   10   11 ar
  20   10   13 1
  21   10   18 ar
  22   11   15 ar
  23   12   13 am
  24   12   14 2
  25   13   21 1
  26   15   16 ar
  27   15   34 1
  28   16   17 ar
  29   16   35 1
  30   17   18 ar
  31   17   36 1
  32   18   37 1
  33   19   20 1
  34   19   38 1
  35   19   39 1
  36   19   40 1
  37   21   22 1
  38   21   41 1
  39   21   42 1
  40   22   23 1
  41   22   27 1
  42   23   24 1
  43   23   43 1
  44   23   44 1
  45   24   25 1
  46   24   45 1
  47   24   46 1
  48   25   26 1
  49   25   28 1
  50   26   27 1
  51   26   47 1
  52   26   48 1
  53   27   49 1
  54   27   50 1
  55   28   51 1
  56   28   52 1
  57   28   53 1
  58   29   54 1
  59   29   55 1
  60   29   56 1

#	End of record

