#	Name: ASD01478120
#	Creating user name:	WinNT
#	Creation time:	15. 06. 2019 19:21

#	Modifying user name:	WinNT
#	Modification time:	15. 06. 2019 19:21

#	Program:	/corina/corina34_cracker 3.40 0067  02.08.2006

@<TRIPOS>MOLECULE
ASD01478120
  81   84    0    0    0
SMALL
NO_CHARGES


@<TRIPOS>ATOM
   1 C1            -1.4622     0.4240    -0.4804 C.2     
   2 N2            -1.0590    -0.8509    -0.3116 N.am    
   3 O3            -0.6402     1.3072    -0.6240 O.2     
   4 O4            -2.7760     0.7181    -0.4956 O.3     
   5 C5             0.3704    -1.1718    -0.3012 C.3     
   6 C6             0.5687    -2.6307    -0.7174 C.3     
   7 C7             2.0649    -2.9308    -0.8274 C.3     
   8 N8             2.2541    -4.2800    -1.3661 N.am    
   9 S9             2.4894    -4.4973    -2.9908 S.o2    
  10 O10            2.0925    -5.8310    -3.2789 O.2     
  11 O11            1.9250    -3.3625    -3.6334 O.2     
  12 C12            4.2256    -4.4212    -3.2811 C.ar    
  13 C13            4.9860    -5.5746    -3.2249 C.ar    
  14 C14            6.3474    -5.5176    -3.4522 C.ar    
  15 C15            6.9516    -4.3017    -3.7369 C.ar    
  16 C16            6.1865    -3.1458    -3.7927 C.ar    
  17 C17            4.8245    -3.2090    -3.5703 C.ar    
  18 O18            8.2908    -4.2429    -3.9604 O.3     
  19 C19            8.8448    -2.9574    -4.2479 C.3     
  20 C20            2.2350    -5.4369    -0.4675 C.3     
  21 C21            3.4126    -5.3467     0.5051 C.3     
  22 C22            3.3086    -6.4710     1.5375 C.3     
  23 C23            4.7251    -5.4849    -0.2690 C.3     
  24 O24           -0.0187    -3.4895     0.2621 O.3     
  25 C25            0.9298    -0.9628     1.1075 C.3     
  26 C26            0.8463     0.4976     1.4696 C.ar    
  27 C27           -0.2832     0.9913     2.0951 C.ar    
  28 C28           -0.3598     2.3309     2.4271 C.ar    
  29 C29            0.6935     3.1769     2.1341 C.ar    
  30 C30            1.8234     2.6831     1.5094 C.ar    
  31 C31            1.9017     1.3426     1.1812 C.ar    
  32 O32           -6.4687     2.9517    -0.2336 O.3     
  33 C33           -7.4979     3.8754     0.0677 C.3     
  34 O34           -7.2372     4.5146     1.2964 O.3     
  35 C35           -6.0600     5.3058     1.3405 C.3     
  36 O36           -4.8804     4.5616     1.4428 O.3     
  37 C37           -4.3039     3.9723     0.3108 C.3     
  38 C38           -5.2451     3.4065    -0.7388 C.3     
  39 C39           -4.4982     2.2254    -1.4009 C.3     
  40 C40           -3.1373     2.1120    -0.6817 C.3     
  41 C41           -3.3704     2.7996     0.6889 C.3     
  42 H42           -1.7152    -1.5560    -0.1971 H       
  43 H43            0.8942    -0.5201    -1.0005 H       
  44 H44            0.0921    -2.8011    -1.6828 H       
  45 H45            2.5332    -2.2051    -1.4923 H       
  46 H46            2.5219    -2.8666     0.1601 H       
  47 H47            4.5152    -6.5209    -3.0029 H       
  48 H48            6.9410    -6.4188    -3.4078 H       
  49 H49            6.6545    -2.1980    -4.0142 H       
  50 H50            4.2277    -2.3102    -3.6183 H       
  51 H51            8.3798    -2.5543    -5.1475 H       
  52 H52            8.6579    -2.2856    -3.4101 H       
  53 H53            9.9192    -3.0517    -4.4053 H       
  54 H54            1.3004    -5.4459     0.0933 H       
  55 H55            2.3164    -6.3529    -1.0527 H       
  56 H56            3.3906    -4.3830     1.0139 H       
  57 H57            3.3306    -7.4347     1.0287 H       
  58 H58            4.1476    -6.4068     2.2304 H       
  59 H59            2.3736    -6.3726     2.0890 H       
  60 H60            4.7960    -4.6879    -1.0092 H       
  61 H61            5.5642    -5.4137     0.4230 H       
  62 H62            4.7501    -6.4514    -0.7722 H       
  63 H63            0.4158    -3.4566     1.1253 H       
  64 H64            0.3478    -1.5476     1.8199 H       
  65 H65            1.9705    -1.2856     1.1368 H       
  66 H66           -1.1061     0.3303     2.3240 H       
  67 H67           -1.2426     2.7167     2.9152 H       
  68 H68            0.6334     4.2237     2.3929 H       
  69 H69            2.6462     3.3442     1.2802 H       
  70 H70            2.7861     0.9560     0.6965 H       
  71 H71           -7.5545     4.6232    -0.7232 H       
  72 H72           -8.4495     3.3475     0.1305 H       
  73 H73           -6.0127     5.9094     0.4341 H       
  74 H74           -6.1235     5.9761     2.1977 H       
  75 H75           -3.6843     4.7258    -0.1756 H       
  76 H76           -5.4316     4.1657    -1.4983 H       
  77 H77           -5.0668     1.3044    -1.2729 H       
  78 H78           -4.3452     2.4268    -2.4612 H       
  79 H79           -2.3641     2.6354    -1.2442 H       
  80 H80           -2.4319     3.1684     1.1027 H       
  81 H81           -3.8627     2.1206     1.3850 H       
@<TRIPOS>BOND
   1    1    2 am
   2    1    3 2
   3    1    4 1
   4    2    5 1
   5    2   42 1
   6    4   40 1
   7    5    6 1
   8    5   25 1
   9    5   43 1
  10    6    7 1
  11    6   24 1
  12    6   44 1
  13    7    8 1
  14    7   45 1
  15    7   46 1
  16    8    9 am
  17    8   20 1
  18    9   10 2
  19    9   11 2
  20    9   12 1
  21   12   13 ar
  22   12   17 ar
  23   13   14 ar
  24   13   47 1
  25   14   15 ar
  26   14   48 1
  27   15   16 ar
  28   15   18 1
  29   16   17 ar
  30   16   49 1
  31   17   50 1
  32   18   19 1
  33   19   51 1
  34   19   52 1
  35   19   53 1
  36   20   21 1
  37   20   54 1
  38   20   55 1
  39   21   22 1
  40   21   23 1
  41   21   56 1
  42   22   57 1
  43   22   58 1
  44   22   59 1
  45   23   60 1
  46   23   61 1
  47   23   62 1
  48   24   63 1
  49   25   26 1
  50   25   64 1
  51   25   65 1
  52   26   27 ar
  53   26   31 ar
  54   27   28 ar
  55   27   66 1
  56   28   29 ar
  57   28   67 1
  58   29   30 ar
  59   29   68 1
  60   30   31 ar
  61   30   69 1
  62   31   70 1
  63   32   33 1
  64   32   38 1
  65   33   34 1
  66   33   71 1
  67   33   72 1
  68   34   35 1
  69   35   36 1
  70   35   73 1
  71   35   74 1
  72   36   37 1
  73   37   38 1
  74   37   41 1
  75   37   75 1
  76   38   39 1
  77   38   76 1
  78   39   40 1
  79   39   77 1
  80   39   78 1
  81   40   41 1
  82   40   79 1
  83   41   80 1
  84   41   81 1

#	End of record

