#	Name: ASD08151042
#	Creating user name:	WinNT
#	Creation time:	15. 06. 2019 21:17

#	Modifying user name:	WinNT
#	Modification time:	15. 06. 2019 21:17

#	Program:	/corina/corina34_cracker 3.40 0067  02.08.2006

@<TRIPOS>MOLECULE
ASD08151042
  35   37    0    0    0
SMALL
NO_CHARGES


@<TRIPOS>ATOM
   1 C1            -0.0184     1.5028     0.0103 C.2     
   2 C2             0.0021    -0.0041     0.0020 C.3     
   3 N3             2.4524     5.6977     0.0088 N.ar    
   4 C4             3.5784     6.3687     0.0021 C.ar    
   5 C5             4.8135     5.7238    -0.0126 C.ar    
   6 C6             4.8689     4.3586    -0.0204 C.ar    
   7 C7             3.6569     3.6435    -0.0132 C.ar    
   8 C8             3.6450     2.2344    -0.0202 C.ar    
   9 C9             2.4682     1.5604    -0.0131 C.ar    
  10 C10            1.2400     2.2523     0.0023 C.ar    
  11 C11            1.2168     3.6502     0.0096 C.ar    
  12 C12            2.4385     4.3627     0.0018 C.ar    
  13 N13            0.0134     4.3284     0.0238 N.3     
  14 C14           -0.0984     5.1814     1.2212 C.3     
  15 C15           -0.3453     6.6244     0.7332 C.3     
  16 C16           -0.9251     6.4174    -0.6907 C.3     
  17 C17           -0.1289     5.1804    -1.1761 C.3     
  18 O18           -1.2928     7.2867     1.5733 O.3     
  19 Cl19           5.1432     1.3576    -0.0393 Cl      
  20 O20           -1.0774     2.0951     0.0185 O.2     
  21 H21            0.5293    -0.3651     0.8851 H       
  22 H22           -1.0205    -0.3814     0.0098 H       
  23 H23            0.5123    -0.3556    -0.8948 H       
  24 H24            3.5482     7.4482     0.0078 H       
  25 H25            5.7255     6.3022    -0.0181 H       
  26 H26            5.8174     3.8422    -0.0322 H       
  27 H27            2.4721     0.4804    -0.0186 H       
  28 H28           -0.9350     4.8496     1.8361 H       
  29 H29            0.8270     5.1374     1.7955 H       
  30 H30            0.5902     7.1823     0.6911 H       
  31 H31           -1.9931     6.2029    -0.6501 H       
  32 H32           -0.7260     7.2826    -1.3230 H       
  33 H33            0.8512     5.4813    -1.5461 H       
  34 H34           -0.6831     4.6530    -1.9525 H       
  35 H35           -1.4833     8.1973     1.3095 H       
@<TRIPOS>BOND
   1    1    2 1
   2    1   10 1
   3    1   20 2
   4    2   21 1
   5    2   22 1
   6    2   23 1
   7    3    4 ar
   8    3   12 ar
   9    4    5 ar
  10    4   24 1
  11    5    6 ar
  12    5   25 1
  13    6    7 ar
  14    6   26 1
  15    7    8 ar
  16    7   12 ar
  17    8    9 ar
  18    8   19 1
  19    9   10 ar
  20    9   27 1
  21   10   11 ar
  22   11   12 ar
  23   11   13 1
  24   13   14 1
  25   13   17 1
  26   14   15 1
  27   14   28 1
  28   14   29 1
  29   15   16 1
  30   15   18 1
  31   15   30 1
  32   16   17 1
  33   16   31 1
  34   16   32 1
  35   17   33 1
  36   17   34 1
  37   18   35 1

#	End of record

