#	Name: ASD03330717
#	Creating user name:	WinNT
#	Creation time:	15. 06. 2019 20:37

#	Modifying user name:	WinNT
#	Modification time:	15. 06. 2019 20:37

#	Program:	/corina/corina34_cracker 3.40 0067  02.08.2006

@<TRIPOS>MOLECULE
ASD03330717
  66   68    0    0    0
SMALL
NO_CHARGES


@<TRIPOS>ATOM
   1 C1            -0.3200     2.0848    -1.2113 C.2     
   2 N2            -0.5067     0.7983    -1.5889 N.pl3   
   3 C3             1.0150     2.2513    -1.0072 C.2     
   4 N4             1.6188     1.0652    -1.2816 N.2     
   5 C5             0.7100     0.2006    -1.6342 C.2     
   6 C6             0.9688    -1.2306    -2.0286 C.3     
   7 C7             1.6828     3.4895    -0.5698 C.2     
   8 O8             1.0270     4.4911    -0.3555 O.2     
   9 C9             3.6846     4.7436     0.0279 C.3     
  10 N10            3.0205     3.5123    -0.4071 N.am    
  11 C11            3.6446     4.8326     1.5548 C.3     
  12 C12            4.2470     3.5610     2.1557 C.3     
  13 C13            4.4526     6.0471     2.0162 C.3     
  14 C14            5.1180     4.7325    -0.4372 C.2     
  15 N15            5.7756     5.8944    -0.6218 N.am    
  16 O16            5.6798     3.6780    -0.6455 O.2     
  17 C17           -1.8030     0.1779    -1.8783 C.3     
  18 C18           -2.6096     1.1019    -2.7956 C.3     
  19 C19           -3.4032     2.0978    -1.9559 C.3     
  20 N20           -2.6695     2.4641    -0.7426 N.3     
  21 C21           -1.3981     3.1273    -1.0680 C.3     
  22 C22            7.1294     5.8889    -1.1816 C.3     
  23 C23            2.1941     4.9786     2.0193 C.3     
  24 C24           -3.4924     3.3058     0.1363 C.3     
  25 C25            1.8766    -1.2640    -3.2311 C.ar    
  26 C26            1.6357    -1.9676    -0.8655 C.3     
  27 C27            1.4476    -1.8548    -4.4048 C.ar    
  28 C28            2.2803    -1.8855    -5.5078 C.ar    
  29 C29            3.5419    -1.3249    -5.4371 C.ar    
  30 C30            3.9706    -0.7332    -4.2636 C.ar    
  31 C31            3.1362    -0.6987    -3.1620 C.ar    
  32 H32            0.0242    -1.7166    -2.2729 H       
  33 H33            3.1705     5.6043    -0.3998 H       
  34 H34            3.5436     2.7135    -0.5779 H       
  35 H35            5.2804     3.4570     1.8248 H       
  36 H36            4.2185     3.6245     3.2435 H       
  37 H37            3.6714     2.6958     1.8270 H       
  38 H38            4.0016     6.9561     1.6181 H       
  39 H39            4.4548     6.0896     3.1054 H       
  40 H40            5.4770     5.9610     1.6539 H       
  41 H41            5.3525     6.7342    -0.3840 H       
  42 H42           -1.6458    -0.7803    -2.3736 H       
  43 H43           -2.3483     0.0225    -0.9473 H       
  44 H44           -1.9296     1.6432    -3.4534 H       
  45 H45           -3.2966     0.5062    -3.3968 H       
  46 H46           -3.5896     2.9951    -2.5460 H       
  47 H47           -4.3568     1.6501    -1.6760 H       
  48 H48           -1.1326     3.8186    -0.2682 H       
  49 H49           -1.5022     3.6749    -2.0047 H       
  50 H50            7.7889     5.3134    -0.5320 H       
  51 H51            7.1107     5.4365    -2.1731 H       
  52 H52            7.4958     6.9128    -1.2563 H       
  53 H53            1.6185     4.1133     1.6906 H       
  54 H54            2.1656     5.0420     3.1071 H       
  55 H55            1.7649     5.8844     1.5912 H       
  56 H56           -4.4241     2.7889     0.3662 H       
  57 H57           -2.9500     3.5052     1.0605 H       
  58 H58           -3.7137     4.2477    -0.3656 H       
  59 H59            1.8229    -3.0028    -1.1508 H       
  60 H60            2.5803    -1.4816    -0.6212 H       
  61 H61            0.9791    -1.9435     0.0042 H       
  62 H62            0.4619    -2.2928    -4.4600 H       
  63 H63            1.9454    -2.3477    -6.4246 H       
  64 H64            4.1928    -1.3495    -6.2986 H       
  65 H65            4.9564    -0.2955    -4.2083 H       
  66 H66            3.4711    -0.2365    -2.2452 H       
@<TRIPOS>BOND
   1    1    2 1
   2    1    3 2
   3    1   21 1
   4    2   17 1
   5    2    5 1
   6    3    4 1
   7    3    7 1
   8    4    5 2
   9    5    6 1
  10    6   26 1
  11    6   25 1
  12    6   32 1
  13    7    8 2
  14    7   10 am
  15    9   10 1
  16    9   11 1
  17    9   14 1
  18    9   33 1
  19   10   34 1
  20   11   12 1
  21   11   13 1
  22   11   23 1
  23   12   35 1
  24   12   36 1
  25   12   37 1
  26   13   38 1
  27   13   39 1
  28   13   40 1
  29   14   15 am
  30   14   16 2
  31   15   22 1
  32   15   41 1
  33   17   18 1
  34   17   42 1
  35   17   43 1
  36   18   19 1
  37   18   44 1
  38   18   45 1
  39   19   20 1
  40   19   46 1
  41   19   47 1
  42   20   21 1
  43   20   24 1
  44   21   48 1
  45   21   49 1
  46   22   50 1
  47   22   51 1
  48   22   52 1
  49   23   53 1
  50   23   54 1
  51   23   55 1
  52   24   56 1
  53   24   57 1
  54   24   58 1
  55   25   27 ar
  56   25   31 ar
  57   26   59 1
  58   26   60 1
  59   26   61 1
  60   27   28 ar
  61   27   62 1
  62   28   29 ar
  63   28   63 1
  64   29   30 ar
  65   29   64 1
  66   30   31 ar
  67   30   65 1
  68   31   66 1

#	End of record

