#	Name: ASD03090747
#	Creating user name:	WinNT
#	Creation time:	15. 06. 2019 20:29

#	Modifying user name:	WinNT
#	Modification time:	15. 06. 2019 20:29

#	Program:	/corina/corina34_cracker 3.40 0067  02.08.2006

@<TRIPOS>MOLECULE
ASD03090747
  39   41    0    0    0
SMALL
NO_CHARGES


@<TRIPOS>ATOM
   1 C1            -0.0187     1.5258     0.0104 C.3     
   2 C2             0.0021    -0.0041     0.0020 C.3     
   3 C3             0.7074    -0.4901    -1.2379 C.ar    
   4 C4            -0.0269    -0.9205    -2.3270 C.ar    
   5 C5             0.6201    -1.3663    -3.4643 C.ar    
   6 C6             2.0015    -1.3813    -3.5126 C.ar    
   7 C7             2.7359    -0.9501    -2.4238 C.ar    
   8 C8             2.0889    -0.5002    -1.2881 C.ar    
   9 N9             0.7106    -0.4894     1.1889 N.am    
  10 C10            0.0512    -0.6335     2.3554 C.2     
  11 O11           -1.1288    -0.3614     2.4226 O.2     
  12 C12            0.7801    -1.1327     3.5763 C.3     
  13 C13            0.9959    -0.1439     4.7238 C.3     
  14 C14           -0.0240    -1.2750     4.8702 C.3     
  15 C15            0.3302    -2.4169     5.7876 C.ar    
  16 C16           -0.6180    -3.3737     6.0981 C.ar    
  17 C17           -0.2931    -4.4212     6.9396 C.ar    
  18 C18            0.9801    -4.5121     7.4703 C.ar    
  19 C19            1.9286    -3.5557     7.1590 C.ar    
  20 C20            1.6049    -2.5107     6.3141 C.ar    
  21 H21            1.0039     1.9031     0.0027 H       
  22 H22           -0.5459     1.8868    -0.8726 H       
  23 H23           -0.5289     1.8773     0.9072 H       
  24 H24           -1.0205    -0.3814     0.0098 H       
  25 H25           -1.1062    -0.9087    -2.2893 H       
  26 H26            0.0463    -1.7032    -4.3150 H       
  27 H27            2.5070    -1.7303    -4.4009 H       
  28 H28            3.8152    -0.9621    -2.4614 H       
  29 H29            2.6626    -0.1632    -0.4374 H       
  30 H30            1.6544    -0.7070     1.1351 H       
  31 H31            1.5655    -1.8648     3.3884 H       
  32 H32            1.9230    -0.2258     5.2910 H       
  33 H33            0.6106     0.8677     4.5957 H       
  34 H34           -1.0802    -1.0075     4.8383 H       
  35 H35           -1.6127    -3.3027     5.6835 H       
  36 H36           -1.0340    -5.1683     7.1827 H       
  37 H37            1.2338    -5.3300     8.1283 H       
  38 H38            2.9232    -3.6266     7.5739 H       
  39 H39            2.3459    -1.7635     6.0709 H       
@<TRIPOS>BOND
   1    1    2 1
   2    1   21 1
   3    1   22 1
   4    1   23 1
   5    2    3 1
   6    2    9 1
   7    2   24 1
   8    3    4 ar
   9    3    8 ar
  10    4    5 ar
  11    4   25 1
  12    5    6 ar
  13    5   26 1
  14    6    7 ar
  15    6   27 1
  16    7    8 ar
  17    7   28 1
  18    8   29 1
  19    9   10 am
  20    9   30 1
  21   10   11 2
  22   10   12 1
  23   12   13 1
  24   12   14 1
  25   12   31 1
  26   13   14 1
  27   13   32 1
  28   13   33 1
  29   14   15 1
  30   14   34 1
  31   15   16 ar
  32   15   20 ar
  33   16   17 ar
  34   16   35 1
  35   17   18 ar
  36   17   36 1
  37   18   19 ar
  38   18   37 1
  39   19   20 ar
  40   19   38 1
  41   20   39 1

#	End of record

