#	Name: ASD05303016
#	Creating user name:	WinNT
#	Creation time:	15. 06. 2019 20:58

#	Modifying user name:	WinNT
#	Modification time:	15. 06. 2019 20:58

#	Program:	/corina/corina34_cracker 3.40 0067  02.08.2006

@<TRIPOS>MOLECULE
ASD05303016
  29   31    0    0    0
SMALL
NO_CHARGES


@<TRIPOS>ATOM
   1 C1            -0.0108     1.3886    -0.0400 C.ar    
   2 C2             0.0040     0.0066    -0.0485 C.ar    
   3 C3             1.2093    -0.6734    -0.0453 C.ar    
   4 C4             2.3984     0.0340    -0.0338 C.ar    
   5 C5             2.3873     1.4271    -0.0286 C.ar    
   6 C6             1.1754     2.0997    -0.0302 C.ar    
   7 O7             3.5512     2.1255    -0.0257 O.3     
   8 N8             3.6321    -0.6426    -0.0220 N.am    
   9 C9             4.7138     1.4956     0.2808 C.ar    
  10 C10            4.7838     0.1041     0.2879 C.ar    
  11 C11            5.9724    -0.5333     0.5971 C.ar    
  12 C12            7.0955     0.2152     0.9028 C.ar    
  13 C13            7.0291     1.5957     0.8990 C.ar    
  14 C14            5.8435     2.2371     0.5894 C.ar    
  15 C15            3.7080    -1.9597    -0.2973 C.2     
  16 O16            2.6917    -2.6065    -0.4576 O.2     
  17 O17            4.9101    -2.5592    -0.3949 O.3     
  18 C18            4.9159    -3.9801    -0.6938 C.3     
  19 H19           -0.9533     1.9159    -0.0455 H       
  20 H20           -0.9257    -0.5430    -0.0573 H       
  21 H21            1.2217    -1.7533    -0.0514 H       
  22 H22            1.1573     3.1796    -0.0245 H       
  23 H23            6.0233    -1.6121     0.6003 H       
  24 H24            8.0244    -0.2797     1.1447 H       
  25 H25            7.9074     2.1766     1.1390 H       
  26 H26            5.7979     3.3161     0.5880 H       
  27 H27            5.9447    -4.3365    -0.7444 H       
  28 H28            4.3830    -4.5184     0.0900 H       
  29 H29            4.4243    -4.1519    -1.6514 H       
@<TRIPOS>BOND
   1    1    2 ar
   2    1    6 ar
   3    1   19 1
   4    2    3 ar
   5    2   20 1
   6    3    4 ar
   7    3   21 1
   8    4    5 ar
   9    4    8 1
  10    5    6 ar
  11    5    7 1
  12    6   22 1
  13    7    9 1
  14    8   10 1
  15    8   15 am
  16    9   10 ar
  17    9   14 ar
  18   10   11 ar
  19   11   12 ar
  20   11   23 1
  21   12   13 ar
  22   12   24 1
  23   13   14 ar
  24   13   25 1
  25   14   26 1
  26   15   16 2
  27   15   17 1
  28   17   18 1
  29   18   27 1
  30   18   28 1
  31   18   29 1

#	End of record

