#	Name: ASD01880574
#	Creating user name:	WinNT
#	Creation time:	15. 06. 2019 19:41

#	Modifying user name:	WinNT
#	Modification time:	15. 06. 2019 19:41

#	Program:	/corina/corina34_cracker 3.40 0067  02.08.2006

@<TRIPOS>MOLECULE
ASD01880574
  38   40    0    0    0
SMALL
NO_CHARGES


@<TRIPOS>ATOM
   1 N1            -0.0158     1.3145     0.0093 N.ar    
   2 C2             0.0021    -0.0041     0.0020 C.ar    
   3 N3             1.1331    -0.6826    -0.0124 N.ar    
   4 C4             2.2994    -0.0571    -0.0202 C.ar    
   5 C5             2.3218     1.3282    -0.0130 C.ar    
   6 C6             1.1125     2.0078     0.0022 C.ar    
   7 C7             3.6285     2.0787    -0.0209 C.3     
   8 O8             4.7125     1.1477    -0.0359 O.3     
   9 C9             5.9677     1.6636    -0.0446 C.ar    
  10 C10            7.0688     0.8128    -0.0593 C.ar    
  11 C11            8.3379     1.3360    -0.0685 C.ar    
  12 C12            8.5326     2.7212    -0.0634 C.ar    
  13 C13            7.4232     3.5712    -0.0490 C.ar    
  14 C14            6.1522     3.0410    -0.0447 C.ar    
  15 C15            9.7116     0.7131    -0.0846 C.3     
  16 N16           10.6666     1.8271    -0.0880 N.am    
  17 C17            9.9821     2.9837    -0.0757 C.2     
  18 O18           10.4874     4.0896    -0.0752 O.2     
  19 Br19          -1.6370    -0.9470     0.0132 Br      
  20 Br20           1.0757     3.8985     0.0121 Br      
  21 C21           14.1450     1.5291    -1.5637 C.3     
  22 C22           12.6209     1.6622    -1.5492 C.3     
  23 C23           12.1260     1.6996    -0.1019 C.3     
  24 H24            3.2216    -0.6190    -0.0317 H       
  25 H25            3.6796     2.7100    -0.9080 H       
  26 H26            3.6959     2.7005     0.8718 H       
  27 H27            6.9251    -0.2575    -0.0630 H       
  28 H28            7.5626     4.6421    -0.0445 H       
  29 H29            5.2953     3.6984    -0.0340 H       
  30 H30            9.8551     0.0992     0.8046 H       
  31 H31            9.8383     0.1083    -0.9825 H       
  32 H32           14.4975     1.5024    -2.5948 H       
  33 H33           14.5891     2.3816    -1.0498 H       
  34 H34           14.4341     0.6084    -1.0569 H       
  35 H35           12.3317     2.5829    -2.0559 H       
  36 H36           12.1767     0.8097    -2.0631 H       
  37 H37           12.5701     2.5521     0.4120 H       
  38 H38           12.4151     0.7790     0.4049 H       
@<TRIPOS>BOND
   1    1    2 ar
   2    1    6 ar
   3    2    3 ar
   4    2   19 1
   5    3    4 ar
   6    4    5 ar
   7    4   24 1
   8    5    6 ar
   9    5    7 1
  10    6   20 1
  11    7    8 1
  12    7   25 1
  13    7   26 1
  14    8    9 1
  15    9   10 ar
  16    9   14 ar
  17   10   11 ar
  18   10   27 1
  19   11   12 ar
  20   11   15 1
  21   12   13 ar
  22   12   17 1
  23   13   14 ar
  24   13   28 1
  25   14   29 1
  26   15   16 1
  27   15   30 1
  28   15   31 1
  29   16   17 am
  30   16   23 1
  31   17   18 2
  32   21   22 1
  33   21   32 1
  34   21   33 1
  35   21   34 1
  36   22   23 1
  37   22   35 1
  38   22   36 1
  39   23   37 1
  40   23   38 1

#	End of record

