#	Name: ASD08178011
#	Creating user name:	WinNT
#	Creation time:	15. 06. 2019 21:18

#	Modifying user name:	WinNT
#	Modification time:	15. 06. 2019 21:18

#	Program:	/corina/corina34_cracker 3.40 0067  02.08.2006

@<TRIPOS>MOLECULE
ASD08178011
  74   77    0    0    0
SMALL
NO_CHARGES


@<TRIPOS>ATOM
   1 N1            -1.2352     1.4495    -0.5837 N.2     
   2 N2            -1.0429     0.2039    -0.5089 N.2     
   3 C3            -0.1901     2.2186    -0.6416 C.2     
   4 S4             1.2151     1.2399    -0.5954 S.3     
   5 C5             0.1902    -0.1924    -0.4969 C.2     
   6 N6            -0.2088     3.6066    -0.7269 N.am    
   7 C7            -1.3849     4.2642    -0.7551 C.2     
   8 O8            -2.4269     3.6456    -0.7060 O.2     
   9 C9            -1.4052     5.7682    -0.8475 C.3     
  10 C10            0.6640    -1.6204    -0.4127 C.3     
  11 C11            0.8108    -2.1931    -1.8239 C.3     
  12 S12            1.3813    -3.9121    -1.7225 S.3     
  13 C13            1.4930    -4.4083    -3.4638 C.3     
  14 C14            1.9694    -5.8596    -3.5510 C.3     
  15 C15            2.0622    -6.2718    -4.9975 C.2     
  16 N16            3.1022    -6.1535    -5.7604 N.2     
  17 S17            0.7763    -7.0091    -5.9538 S.3     
  18 C18            1.8331    -7.0583    -7.3012 C.2     
  19 N19            2.9797    -6.5596    -6.9495 N.2     
  20 N20            1.5174    -7.5549    -8.5613 N.am    
  21 C21            0.2883    -8.0534    -8.8007 C.2     
  22 O22           -0.0162    -8.4044    -9.9210 O.2     
  23 C23           -0.7078    -8.1745    -7.6763 C.3     
  24 C24            2.5209    -7.5364    -9.6285 C.3     
  25 O25            2.1942    -6.4910   -10.5819 O.3     
  26 C26            2.4586    -5.2272   -10.2148 C.2     
  27 C27            2.0347    -4.0818   -11.0976 C.3     
  28 O28            3.0364    -5.0080    -9.1765 O.2     
  29 C29            2.4535    -2.7590   -10.4530 C.3     
  30 C30            2.0231    -1.5961   -11.3493 C.3     
  31 C31           -1.9939    -8.7556    -8.2049 C.ar    
  32 C32           -2.1825   -10.1250    -8.2108 C.ar    
  33 C33           -3.3622   -10.6581    -8.6957 C.ar    
  34 C34           -4.3533    -9.8218    -9.1744 C.ar    
  35 C35           -4.1650    -8.4523    -9.1677 C.ar    
  36 C36           -2.9871    -7.9190    -8.6787 C.ar    
  37 C37           -2.8325     6.2514    -0.8623 C.ar    
  38 C38           -3.4747     6.5466     0.3257 C.ar    
  39 C39           -4.7840     6.9898     0.3121 C.ar    
  40 C40           -5.4510     7.1382    -0.8895 C.ar    
  41 C41           -4.8086     6.8438    -2.0776 C.ar    
  42 C42           -3.4979     6.4048    -2.0643 C.ar    
  43 H43            0.6246     4.1014    -0.7661 H       
  44 H44           -0.8870     6.1921     0.0126 H       
  45 H45           -0.9056     6.0827    -1.7639 H       
  46 H46            1.6279    -1.6541     0.0952 H       
  47 H47           -0.0617    -2.2118     0.1457 H       
  48 H48           -0.1530    -2.1594    -2.3317 H       
  49 H49            1.5366    -1.6018    -2.3822 H       
  50 H50            0.5120    -4.3192    -3.9306 H       
  51 H51            2.2016    -3.7615    -3.9811 H       
  52 H52            2.9503    -5.9487    -3.0841 H       
  53 H53            1.2607    -6.5063    -3.0336 H       
  54 H54           -0.3047    -8.8280    -6.9027 H       
  55 H55           -0.9012    -7.1882    -7.2544 H       
  56 H56            3.5040    -7.3426    -9.1995 H       
  57 H57            2.5296    -8.5010   -10.1359 H       
  58 H58            2.5126    -4.1783   -12.0725 H       
  59 H59            0.9518    -4.0993   -11.2205 H       
  60 H60            1.9755    -2.6625    -9.4781 H       
  61 H61            3.5364    -2.7415   -10.3301 H       
  62 H62            0.9402    -1.6136   -11.4723 H       
  63 H63            2.3215    -0.6536   -10.8901 H       
  64 H64            2.5010    -1.6926   -12.3242 H       
  65 H65           -1.4082   -10.7784    -7.8369 H       
  66 H66           -3.5093   -11.7280    -8.7010 H       
  67 H67           -5.2747   -10.2383    -9.5539 H       
  68 H68           -4.9392    -7.7989    -9.5419 H       
  69 H69           -2.8415    -6.8489    -8.6700 H       
  70 H70           -2.9535     6.4307     1.2645 H       
  71 H71           -5.2859     7.2198     1.2404 H       
  72 H72           -6.4742     7.4837    -0.9001 H       
  73 H73           -5.3299     6.9594    -3.0164 H       
  74 H74           -2.9948     6.1784    -2.9927 H       
@<TRIPOS>BOND
   1    1    2 1
   2    1    3 2
   3    2    5 2
   4    3    4 1
   5    3    6 1
   6    4    5 1
   7    5   10 1
   8    6    7 am
   9    6   43 1
  10    7    8 2
  11    7    9 1
  12    9   37 1
  13    9   44 1
  14    9   45 1
  15   10   11 1
  16   10   46 1
  17   10   47 1
  18   11   12 1
  19   11   48 1
  20   11   49 1
  21   12   13 1
  22   13   14 1
  23   13   50 1
  24   13   51 1
  25   14   15 1
  26   14   52 1
  27   14   53 1
  28   15   16 2
  29   15   17 1
  30   16   19 1
  31   17   18 1
  32   18   19 2
  33   18   20 1
  34   20   21 am
  35   20   24 1
  36   21   22 2
  37   21   23 1
  38   23   31 1
  39   23   54 1
  40   23   55 1
  41   24   25 1
  42   24   56 1
  43   24   57 1
  44   25   26 1
  45   26   27 1
  46   26   28 2
  47   27   29 1
  48   27   58 1
  49   27   59 1
  50   29   30 1
  51   29   60 1
  52   29   61 1
  53   30   62 1
  54   30   63 1
  55   30   64 1
  56   31   32 ar
  57   31   36 ar
  58   32   33 ar
  59   32   65 1
  60   33   34 ar
  61   33   66 1
  62   34   35 ar
  63   34   67 1
  64   35   36 ar
  65   35   68 1
  66   36   69 1
  67   37   38 ar
  68   37   42 ar
  69   38   39 ar
  70   38   70 1
  71   39   40 ar
  72   39   71 1
  73   40   41 ar
  74   40   72 1
  75   41   42 ar
  76   41   73 1
  77   42   74 1

#	End of record

