#	Name: ASD05313072
#	Creating user name:	WinNT
#	Creation time:	15. 06. 2019 20:58

#	Modifying user name:	WinNT
#	Modification time:	15. 06. 2019 20:58

#	Program:	/corina/corina34_cracker 3.40 0067  02.08.2006

@<TRIPOS>MOLECULE
ASD05313072
  41   44    0    0    0
SMALL
NO_CHARGES


@<TRIPOS>ATOM
   1 C1            -0.0722     0.8173     1.0242 C.2     
   2 C2             0.1138    -0.6190     0.5966 C.3     
   3 N3             0.9302     1.7306     1.0505 N.pl3   
   4 N4             1.4570    -0.7184    -0.0052 N.am    
   5 C5             2.5713    -0.0367     0.6708 C.3     
   6 C6             2.3168     1.4753     0.6644 C.3     
   7 N7            -0.9041     2.6403     1.7083 N.2     
   8 N8            -1.1571     1.4082     1.4269 N.2     
   9 C9             0.3718     2.8903     1.4949 C.2     
  10 C10            1.0646     4.1809     1.7012 C.ar    
  11 C11            0.3483     5.2845     2.1647 C.ar    
  12 C12            1.0107     6.4847     2.3531 C.ar    
  13 C13            2.3687     6.5435     2.0721 C.ar    
  14 C14            3.0170     5.4105     1.6154 C.ar    
  15 N15            2.3646     4.2783     1.4490 N.ar    
  16 C16            4.4912     5.4706     1.3087 C.3     
  17 C17            1.6574    -1.4143    -1.1419 C.2     
  18 O18            2.7491    -1.4037    -1.6766 O.2     
  19 C19            0.5501    -2.1902    -1.7381 C.ar    
  20 C20            0.3187    -2.1383    -3.1150 C.ar    
  21 C21           -0.7191    -2.8670    -3.6651 C.ar    
  22 C22           -1.5270    -3.6455    -2.8544 C.ar    
  23 C23           -1.3020    -3.6998    -1.4903 C.ar    
  24 C24           -0.2658    -2.9829    -0.9290 C.ar    
  25 Cl25          -1.0101    -2.8053    -5.3754 Cl      
  26 Cl26           1.3311    -1.1611    -4.1317 Cl      
  27 H27            0.0448    -1.2769     1.4629 H       
  28 H28           -0.6441    -0.8894    -0.1386 H       
  29 H29            2.6434    -0.3893     1.6997 H       
  30 H30            3.5019    -0.2516     0.1455 H       
  31 H31            2.4950     1.8700    -0.3359 H       
  32 H32            2.9876     1.9608     1.3732 H       
  33 H33           -0.7083     5.2034     2.3732 H       
  34 H34            0.4827     7.3564     2.7106 H       
  35 H35            2.9140     7.4657     2.2085 H       
  36 H36            5.0591     5.2161     2.2036 H       
  37 H37            4.7265     4.7614     0.5151 H       
  38 H38            4.7543     6.4778     0.9856 H       
  39 H39           -2.3369    -4.2129    -3.2886 H       
  40 H40           -1.9366    -4.3090    -0.8638 H       
  41 H41           -0.0892    -3.0307     0.1354 H       
@<TRIPOS>BOND
   1    1    2 1
   2    1    3 1
   3    1    8 2
   4    2    4 1
   5    2   27 1
   6    2   28 1
   7    3    6 1
   8    3    9 1
   9    4    5 1
  10    4   17 am
  11    5    6 1
  12    5   29 1
  13    5   30 1
  14    6   31 1
  15    6   32 1
  16    7    8 1
  17    7    9 2
  18    9   10 1
  19   10   11 ar
  20   10   15 ar
  21   11   12 ar
  22   11   33 1
  23   12   13 ar
  24   12   34 1
  25   13   14 ar
  26   13   35 1
  27   14   15 ar
  28   14   16 1
  29   16   36 1
  30   16   37 1
  31   16   38 1
  32   17   18 2
  33   17   19 1
  34   19   20 ar
  35   19   24 ar
  36   20   21 ar
  37   20   26 1
  38   21   22 ar
  39   21   25 1
  40   22   23 ar
  41   22   39 1
  42   23   24 ar
  43   23   40 1
  44   24   41 1

#	End of record

