#	Name: ASD01880905
#	Creating user name:	WinNT
#	Creation time:	15. 06. 2019 19:41

#	Modifying user name:	WinNT
#	Modification time:	15. 06. 2019 19:41

#	Program:	/corina/corina34_cracker 3.40 0067  02.08.2006

@<TRIPOS>MOLECULE
ASD01880905
  42   44    0    0    0
SMALL
NO_CHARGES


@<TRIPOS>ATOM
   1 N1            -0.0158     1.3133     0.0093 N.ar    
   2 C2             0.0021    -0.0041     0.0020 C.ar    
   3 N3             1.1312    -0.6836    -0.0124 N.ar    
   4 C4             2.3014    -0.0555    -0.0202 C.ar    
   5 C5             2.3199     1.3381    -0.0129 C.ar    
   6 C6             1.1118     2.0107     0.0022 C.ar    
   7 C7             3.6241     2.0931    -0.0208 C.3     
   8 O8             4.0240     2.3390    -1.3705 O.3     
   9 C9             5.1867     3.0140    -1.5554 C.ar    
  10 C10            5.6346     3.2871    -2.8442 C.ar    
  11 C11            6.8106     3.9704    -3.0298 C.ar    
  12 C12            7.5636     4.3951    -1.9301 C.ar    
  13 C13            7.1090     4.1186    -0.6377 C.ar    
  14 C14            5.9260     3.4370    -0.4572 C.ar    
  15 C15            7.5618     4.4185    -4.2587 C.3     
  16 N16            8.7629     5.1092    -3.7756 N.am    
  17 C17            8.7599     5.0934    -2.4316 C.2     
  18 O18            9.6218     5.5858    -1.7295 O.2     
  19 C19            7.9100     4.5694     0.5565 C.3     
  20 I20            1.0638     4.1051     0.0139 I       
  21 C21            9.4321     7.1753    -4.9003 C.3     
  22 C22            9.7956     5.7159    -4.6192 C.3     
  23 O23            3.4597    -0.7589    -0.0346 O.3     
  24 C24            3.3533    -2.1839    -0.0408 C.3     
  25 H25           -0.9344    -0.5419     0.0084 H       
  26 H26            3.4974     3.0426     0.4993 H       
  27 H27            4.3891     1.5022     0.4829 H       
  28 H28            5.0579     2.9615    -3.6974 H       
  29 H29            5.5751     3.2240     0.5417 H       
  30 H30            7.8432     3.5550    -4.8615 H       
  31 H31            6.9473     5.1014    -4.8453 H       
  32 H32            7.5886     5.5676     0.8538 H       
  33 H33            7.7523     3.8759     1.3826 H       
  34 H34            8.9685     4.5908     0.2971 H       
  35 H35           10.2005     7.6266    -5.5280 H       
  36 H36            8.4718     7.2180    -5.4141 H       
  37 H37            9.3652     7.7208    -3.9590 H       
  38 H38           10.7559     5.6731    -4.1054 H       
  39 H39            9.8625     5.1703    -5.5605 H       
  40 H40            2.8222    -2.5125     0.8526 H       
  41 H41            2.8055    -2.5035    -0.9273 H       
  42 H42            4.3510    -2.6227    -0.0523 H       
@<TRIPOS>BOND
   1    1    2 ar
   2    1    6 ar
   3    2    3 ar
   4    2   25 1
   5    3    4 ar
   6    4    5 ar
   7    4   23 1
   8    5    6 ar
   9    5    7 1
  10    6   20 1
  11    7    8 1
  12    7   26 1
  13    7   27 1
  14    8    9 1
  15    9   10 ar
  16    9   14 ar
  17   10   11 ar
  18   10   28 1
  19   11   12 ar
  20   11   15 1
  21   12   13 ar
  22   12   17 1
  23   13   14 ar
  24   13   19 1
  25   14   29 1
  26   15   16 1
  27   15   30 1
  28   15   31 1
  29   16   17 am
  30   16   22 1
  31   17   18 2
  32   19   32 1
  33   19   33 1
  34   19   34 1
  35   21   22 1
  36   21   35 1
  37   21   36 1
  38   21   37 1
  39   22   38 1
  40   22   39 1
  41   23   24 1
  42   24   40 1
  43   24   41 1
  44   24   42 1

#	End of record

