#	Name: ASD01120004
#	Creating user name:	WinNT
#	Creation time:	15. 06. 2019 18:58

#	Modifying user name:	WinNT
#	Modification time:	15. 06. 2019 18:58

#	Program:	/corina/corina34_cracker 3.40 0067  02.08.2006

@<TRIPOS>MOLECULE
ASD01120004
  56   59    0    0    0
SMALL
NO_CHARGES


@<TRIPOS>ATOM
   1 C1            -0.1060     1.4163    -1.1197 C.ar    
   2 C2            -0.1034     0.0406    -1.2678 C.ar    
   3 C3            -1.2780    -0.6719    -1.1425 C.ar    
   4 C4            -2.4711    -0.0017    -0.8656 C.ar    
   5 C5            -2.4665     1.3865    -0.7173 C.ar    
   6 C6            -1.2839     2.0862    -0.8400 C.ar    
   7 C7            -3.7329    -0.7582    -0.7305 C.2     
   8 N8            -3.8757    -2.0591    -0.8456 N.2     
   9 N9            -5.1110    -2.3708    -0.6665 N.2     
  10 C10           -5.8060    -1.2813    -0.4300 C.2     
  11 O11           -4.9487    -0.2407    -0.4606 O.3     
  12 C12           -7.2592    -1.2098    -0.1727 C.ar    
  13 C13           -8.0269    -2.3744    -0.1656 C.ar    
  14 C14           -9.3896    -2.2992     0.0770 C.ar    
  15 C15           -9.9866    -1.0666     0.3121 C.ar    
  16 C16           -9.2259     0.0880     0.3051 C.ar    
  17 C17           -7.8679     0.0236     0.0699 C.ar    
  18 N18          -10.1643    -3.4647     0.0848 N.am    
  19 C19           -9.6489    -4.6132     0.5662 C.2     
  20 C20          -10.5152    -5.8417     0.6721 C.3     
  21 O21           -8.4879    -4.6580     0.9142 O.2     
  22 C22           -9.6928    -6.9980     1.2444 C.3     
  23 C23          -10.5723    -8.2453     1.3520 C.3     
  24 N24           -9.7826    -9.3554     1.9015 N.3     
  25 C25          -10.6441   -10.4972     2.2412 C.3     
  26 C26           -9.0072    -8.9213     3.0726 C.3     
  27 C27           -8.1557   -10.0899     3.5759 C.3     
  28 O28           -9.0067   -11.2007     3.8714 O.3     
  29 C29           -9.7762   -11.6500     2.7528 C.3     
  30 C30            1.1812     2.1880    -1.2575 C.3     
  31 H31            0.8201    -0.4765    -1.4823 H       
  32 H32           -1.2747    -1.7456    -1.2587 H       
  33 H33           -3.3859     1.9110    -0.5031 H       
  34 H34           -1.2789     3.1601    -0.7256 H       
  35 H35           -7.5611    -3.3314    -0.3489 H       
  36 H36          -11.0485    -1.0102     0.5005 H       
  37 H37           -9.6957     1.0430     0.4885 H       
  38 H38           -7.2772     0.9277     0.0652 H       
  39 H39          -11.0721    -3.4459    -0.2564 H       
  40 H40          -11.3592    -5.6355     1.3304 H       
  41 H41          -10.8838    -6.1128    -0.3172 H       
  42 H42           -8.8488    -7.2042     0.5862 H       
  43 H43           -9.3242    -6.7269     2.2338 H       
  44 H44          -11.4163    -8.0390     2.0102 H       
  45 H45          -10.9409    -8.5163     0.3627 H       
  46 H46          -11.3509   -10.2019     3.0166 H       
  47 H47          -11.1895   -10.8183     1.3538 H       
  48 H48           -8.3578    -8.0920     2.7922 H       
  49 H49           -9.6879    -8.6008     3.8614 H       
  50 H50           -7.4384   -10.3754     2.8064 H       
  51 H51           -7.6225    -9.7897     4.4780 H       
  52 H52          -10.4150   -12.4782     3.0595 H       
  53 H53           -9.1060   -11.9809     1.9594 H       
  54 H54            1.3188     2.4821    -2.2980 H       
  55 H55            1.1397     3.0786    -0.6305 H       
  56 H56            2.0159     1.5612    -0.9436 H       
@<TRIPOS>BOND
   1    1    2 ar
   2    1   30 1
   3    1    6 ar
   4    2    3 ar
   5    2   31 1
   6    3    4 ar
   7    3   32 1
   8    4    5 ar
   9    4    7 1
  10    5    6 ar
  11    5   33 1
  12    6   34 1
  13    7    8 2
  14    7   11 1
  15    8    9 1
  16    9   10 2
  17   10   11 1
  18   10   12 1
  19   12   13 ar
  20   12   17 ar
  21   13   14 ar
  22   13   35 1
  23   14   15 ar
  24   14   18 1
  25   15   16 ar
  26   15   36 1
  27   16   17 ar
  28   16   37 1
  29   17   38 1
  30   18   19 am
  31   18   39 1
  32   19   20 1
  33   19   21 2
  34   20   22 1
  35   20   40 1
  36   20   41 1
  37   22   23 1
  38   22   42 1
  39   22   43 1
  40   23   24 1
  41   23   44 1
  42   23   45 1
  43   24   25 1
  44   24   26 1
  45   25   29 1
  46   25   46 1
  47   25   47 1
  48   26   27 1
  49   26   48 1
  50   26   49 1
  51   27   28 1
  52   27   50 1
  53   27   51 1
  54   28   29 1
  55   29   52 1
  56   29   53 1
  57   30   54 1
  58   30   55 1
  59   30   56 1

#	End of record

