#	Name: ASD01912586
#	Creating user name:	WinNT
#	Creation time:	15. 06. 2019 19:59

#	Modifying user name:	WinNT
#	Modification time:	15. 06. 2019 19:59

#	Program:	/corina/corina34_cracker 3.40 0067  02.08.2006

@<TRIPOS>MOLECULE
ASD01912586
  59   63    0    0    0
SMALL
NO_CHARGES


@<TRIPOS>ATOM
   1 C1             0.0004     1.4165    -0.3878 C.ar    
   2 C2            -1.2144     1.9576     0.0336 C.ar    
   3 C3             1.2604     2.1625    -0.1728 C.2     
   4 N4             1.3790     3.5090     0.0077 N.pl3   
   5 C5             2.5136     1.6274    -0.1135 C.2     
   6 C6             3.4195     2.6796     0.1034 C.2     
   7 N7             2.7378     3.8040     0.1755 N.2     
   8 C8             4.8915     2.5460     0.2330 C.ar    
   9 C9             5.6712     3.6803     0.4473 C.ar    
  10 N10            5.4526     1.3468     0.1491 N.ar    
  11 C11            6.7553     1.1842     0.2586 C.ar    
  12 C12            7.5915     2.2685     0.4669 C.ar    
  13 C13            7.0430     3.5414     0.5664 C.ar    
  14 C14            0.2790     4.4765     0.0230 C.3     
  15 C15           -0.1670     4.7077     1.4438 C.2     
  16 N16           -1.1738     5.5653     1.7030 N.am    
  17 O17            0.3802     4.1220     2.3541 O.2     
  18 C18           -1.6247     5.8056     3.0823 C.3     
  19 C19           -1.6540     7.3178     3.3284 C.3     
  20 N20           -2.4652     7.9643     2.2882 N.3     
  21 C21           -1.8714     7.7791     0.9574 C.3     
  22 C22           -1.8469     6.2904     0.6147 C.3     
  23 C23           -2.6506     9.3132     2.5677 C.ar    
  24 N24           -2.1167     9.8362     3.6605 N.ar    
  25 C25           -2.2687    11.1119     3.9626 C.ar    
  26 C26           -2.9957    11.9516     3.1433 C.ar    
  27 C27           -3.5723    11.4424     1.9870 C.ar    
  28 C28           -3.3907    10.1031     1.6935 C.ar    
  29 C29           -2.3857     1.2573    -0.1697 C.ar    
  30 C30           -2.3572     0.0210    -0.7900 C.ar    
  31 C31           -1.1556    -0.5211    -1.2098 C.ar    
  32 C32            0.0232     0.1670    -1.0074 C.ar    
  33 C33            7.3433    -0.1996     0.1564 C.3     
  34 F34            8.9260     2.0899     0.5781 F       
  35 H35           -1.2379     2.9225     0.5182 H       
  36 H36            2.7647     0.5819    -0.2145 H       
  37 H37            5.2115     4.6549     0.5193 H       
  38 H38            7.6733     4.4033     0.7283 H       
  39 H39            0.6172     5.4181    -0.4094 H       
  40 H40           -0.5552     4.0875    -0.5609 H       
  41 H41           -2.6245     5.3930     3.2178 H       
  42 H42           -0.9333     5.3343     3.7808 H       
  43 H43           -2.0901     7.5186     4.3069 H       
  44 H44           -0.6382     7.7116     3.2946 H       
  45 H45           -2.4651     8.3145     0.2165 H       
  46 H46           -0.8526     8.1665     0.9566 H       
  47 H47           -1.3049     6.1384    -0.3187 H       
  48 H48           -2.8674     5.9212     0.5130 H       
  49 H49           -1.8186    11.5038     4.8628 H       
  50 H50           -3.1154    12.9941     3.3990 H       
  51 H51           -4.1462    12.0788     1.3297 H       
  52 H52           -3.8248     9.6743     0.8024 H       
  53 H53           -3.3268     1.6749     0.1564 H       
  54 H54           -3.2767    -0.5233    -0.9469 H       
  55 H55           -1.1397    -1.4870    -1.6928 H       
  56 H56            0.9606    -0.2571    -1.3358 H       
  57 H57            7.5851    -0.4157    -0.8842 H       
  58 H58            8.2498    -0.2546     0.7591 H       
  59 H59            6.6201    -0.9295     0.5205 H       
@<TRIPOS>BOND
   1    1    2 ar
   2    1    3 1
   3    1   32 ar
   4    2   29 ar
   5    2   35 1
   6    3    4 1
   7    3    5 2
   8    4   14 1
   9    4    7 1
  10    5    6 1
  11    5   36 1
  12    6    7 2
  13    6    8 1
  14    8    9 ar
  15    8   10 ar
  16    9   13 ar
  17    9   37 1
  18   10   11 ar
  19   11   12 ar
  20   11   33 1
  21   12   13 ar
  22   12   34 1
  23   13   38 1
  24   14   15 1
  25   14   39 1
  26   14   40 1
  27   15   16 am
  28   15   17 2
  29   16   18 1
  30   16   22 1
  31   18   19 1
  32   18   41 1
  33   18   42 1
  34   19   20 1
  35   19   43 1
  36   19   44 1
  37   20   21 1
  38   20   23 1
  39   21   22 1
  40   21   45 1
  41   21   46 1
  42   22   47 1
  43   22   48 1
  44   23   24 ar
  45   23   28 ar
  46   24   25 ar
  47   25   26 ar
  48   25   49 1
  49   26   27 ar
  50   26   50 1
  51   27   28 ar
  52   27   51 1
  53   28   52 1
  54   29   30 ar
  55   29   53 1
  56   30   31 ar
  57   30   54 1
  58   31   32 ar
  59   31   55 1
  60   32   56 1
  61   33   57 1
  62   33   58 1
  63   33   59 1

#	End of record

