#	Name: ASD02038773
#	Creating user name:	WinNT
#	Creation time:	15. 06. 2019 20:17

#	Modifying user name:	WinNT
#	Modification time:	15. 06. 2019 20:17

#	Program:	/corina/corina34_cracker 3.40 0067  02.08.2006

@<TRIPOS>MOLECULE
ASD02038773
  45   47    0    0    0
SMALL
NO_CHARGES


@<TRIPOS>ATOM
   1 C1            -1.2846    -0.8278     0.4555 C.2     
   2 C2            -0.0540    -0.0228     0.3003 C.2     
   3 N3             1.1378    -0.6351     0.1543 N.am    
   4 C4             1.2276    -2.0945     0.2452 C.3     
   5 C5             1.1985    -2.6868    -1.1403 C.ar    
   6 C6             2.3435     0.1588    -0.0953 C.3     
   7 O7            -0.1172     1.1911     0.3045 O.2     
   8 N8            -1.3543    -2.1713     0.4784 N.2     
   9 C9            -2.6137    -2.4924     0.6322 C.2     
  10 N10           -3.3199    -1.3490     0.7040 N.pl3   
  11 N11           -2.5039    -0.3572     0.6011 N.2     
  12 C12            2.3810    -3.0175    -1.7756 C.ar    
  13 C13           -0.0106    -2.9046    -1.7735 C.ar    
  14 C14           -0.0373    -3.4480    -3.0445 C.ar    
  15 C15            1.1452    -3.7730    -3.6821 C.ar    
  16 C16            2.3544    -3.5607    -3.0463 C.ar    
  17 C17            2.1449     1.0106    -1.3528 C.3     
  18 C18            3.3776     1.8942    -1.5611 C.3     
  19 O19            3.5814     2.7059    -0.4027 O.3     
  20 C20            3.8195     1.9639     0.7951 C.3     
  21 C21            2.6046     1.0830     1.0981 C.3     
  22 C22            3.6436    -3.9151    -3.7414 C.3     
  23 C23           -4.7713    -1.2489     0.8761 C.3     
  24 F24            3.3620    -4.4376    -5.0083 F       
  25 F25            4.4321    -2.7672    -3.8752 F       
  26 F26            4.3336    -4.8694    -2.9862 F       
  27 H27            2.1590    -2.3712     0.7391 H       
  28 H28            0.3839    -2.4753     0.8209 H       
  29 H29            3.1954    -0.5064    -0.2362 H       
  30 H30           -3.0139    -3.4938     0.6905 H       
  31 H31            3.3256    -2.8511    -1.2792 H       
  32 H32           -0.9346    -2.6507    -1.2753 H       
  33 H33           -0.9821    -3.6188    -3.5390 H       
  34 H34            1.1243    -4.1978    -4.6748 H       
  35 H35            2.0134     0.3593    -2.2169 H       
  36 H36            1.2626     1.6390    -1.2316 H       
  37 H37            4.2528     1.2650    -1.7226 H       
  38 H38            3.2239     2.5335    -2.4304 H       
  39 H39            4.7005     1.3355     0.6644 H       
  40 H40            3.9841     2.6533     1.6232 H       
  41 H41            1.7315     1.7129     1.2688 H       
  42 H42            2.8018     0.4835     1.9868 H       
  43 H43           -5.0096    -1.2129     1.9391 H       
  44 H44           -5.1329    -0.3418     0.3918 H       
  45 H45           -5.2514    -2.1175     0.4253 H       
@<TRIPOS>BOND
   1    1    2 1
   2    1    8 1
   3    1   11 2
   4    2    3 am
   5    2    7 2
   6    3    4 1
   7    3    6 1
   8    4    5 1
   9    4   27 1
  10    4   28 1
  11    5   12 ar
  12    5   13 ar
  13    6   17 1
  14    6   21 1
  15    6   29 1
  16    8    9 2
  17    9   10 1
  18    9   30 1
  19   10   11 1
  20   10   23 1
  21   12   16 ar
  22   12   31 1
  23   13   14 ar
  24   13   32 1
  25   14   15 ar
  26   14   33 1
  27   15   16 ar
  28   15   34 1
  29   16   22 1
  30   17   18 1
  31   17   35 1
  32   17   36 1
  33   18   19 1
  34   18   37 1
  35   18   38 1
  36   19   20 1
  37   20   21 1
  38   20   39 1
  39   20   40 1
  40   21   41 1
  41   21   42 1
  42   22   24 1
  43   22   25 1
  44   22   26 1
  45   23   43 1
  46   23   44 1
  47   23   45 1

#	End of record

