#	Name: ASD04882150
#	Creating user name:	WinNT
#	Creation time:	15. 06. 2019 20:54

#	Modifying user name:	WinNT
#	Modification time:	15. 06. 2019 20:54

#	Program:	/corina/corina34_cracker 3.40 0067  02.08.2006

@<TRIPOS>MOLECULE
ASD04882150
  82   86    0    0    0
SMALL
NO_CHARGES


@<TRIPOS>ATOM
   1 C1            -0.0227     1.4746    -0.1235 C.2     
   2 C2            -0.0740     0.1189     0.4452 C.2     
   3 C3            -1.2133    -0.8148     0.4935 C.2     
   4 N4            -2.4018    -0.4553    -0.0307 N.am    
   5 C5            -3.4497    -1.3835    -0.0926 C.ar    
   6 C6            -4.7719    -0.9567     0.0585 C.ar    
   7 C7            -5.8126    -1.8764    -0.0026 C.ar    
   8 C8            -5.5448    -3.2110    -0.2122 C.ar    
   9 C9            -4.2248    -3.6446    -0.3642 C.ar    
  10 C10           -3.1771    -2.7211    -0.3088 C.ar    
  11 N11           -5.0472     0.3917     0.2711 N.3     
  12 C12           -4.5266     0.8369     1.5712 C.3     
  13 C13           -6.4886     0.6580     0.1650 C.3     
  14 C14           -6.7404     2.1591     0.3255 C.3     
  15 N15           -6.2198     2.6043     1.6256 N.3     
  16 C16           -4.7785     2.3380     1.7317 C.3     
  17 C17           -6.4960     3.9568     1.8388 C.ar    
  18 C18           -7.2635     4.3470     2.9286 C.ar    
  19 C19           -5.9988     4.9151     0.9645 C.ar    
  20 C20           -6.2737     6.2513     1.1782 C.ar    
  21 C21           -7.0428     6.6361     2.2614 C.ar    
  22 C22           -7.5348     5.6853     3.1365 C.ar    
  23 C23           -3.9382    -5.0742    -0.5888 C.2     
  24 N24           -4.9495    -5.9632    -0.6475 N.am    
  25 O25           -2.7895    -5.4506    -0.7209 O.2     
  26 C26            1.2023    -0.0622     0.9199 C.2     
  27 O27            1.8690     1.0608     0.6427 O.3     
  28 N28            1.1942     1.8858     0.0772 N.2     
  29 O29           -1.0810    -1.9096     1.0064 O.2     
  30 C30           -7.8002     3.3115     3.8829 C.3     
  31 C31           -4.6649    -7.3828    -0.8705 C.3     
  32 C32           -5.9775    -8.1686    -0.8939 C.3     
  33 C33           -5.6802    -9.6513    -1.1268 C.3     
  34 N34           -6.9371   -10.4037    -1.1493 N.am    
  35 C35           -7.6620   -10.6364    -2.2570 C.2     
  36 C36           -7.5631   -11.0055     0.0338 C.3     
  37 C37           -9.0250   -11.2927    -0.3746 C.3     
  38 C38           -8.9003   -11.4334    -1.9105 C.3     
  39 O39           -7.3668   -10.2613    -3.3719 O.2     
  40 C40            1.7424    -1.2851     1.6156 C.3     
  41 C41            2.9114    -1.8556     0.8101 C.3     
  42 C42            2.2261    -0.9032     3.0160 C.3     
  43 H43           -0.8240     2.0121    -0.6088 H       
  44 H44           -2.5317     0.4459    -0.3652 H       
  45 H45           -6.8333    -1.5437     0.1149 H       
  46 H46           -6.3554    -3.9231    -0.2589 H       
  47 H47           -2.1561    -3.0531    -0.4263 H       
  48 H48           -5.0331     0.2957     2.3704 H       
  49 H49           -3.4556     0.6406     1.6206 H       
  50 H50           -6.8479     0.3312    -0.8108 H       
  51 H51           -7.0173     0.1148     0.9482 H       
  52 H52           -6.2340     2.7003    -0.4737 H       
  53 H53           -7.8115     2.3554     0.2761 H       
  54 H54           -4.4192     2.6648     2.7075 H       
  55 H55           -4.2497     2.8812     0.9485 H       
  56 H56           -5.3976     4.6154     0.1188 H       
  57 H57           -5.8875     6.9969     0.4989 H       
  58 H58           -7.2557     7.6819     2.4267 H       
  59 H59           -8.1350     5.9891     3.9814 H       
  60 H60           -5.8658    -5.6630    -0.5421 H       
  61 H61           -7.0783     3.1455     4.6826 H       
  62 H62           -8.7401     3.6624     4.3090 H       
  63 H63           -7.9704     2.3774     3.3474 H       
  64 H64           -4.1512    -7.5050    -1.8241 H       
  65 H65           -4.0316    -7.7572    -0.0661 H       
  66 H66           -6.4911    -8.0464     0.0597 H       
  67 H67           -6.6107    -7.7943    -1.6983 H       
  68 H68           -5.1666    -9.7734    -2.0804 H       
  69 H69           -5.0470   -10.0256    -0.3225 H       
  70 H70           -7.0561   -11.9335     0.2980 H       
  71 H71           -7.5355   -10.3082     0.8711 H       
  72 H72           -9.3799   -12.2210     0.0730 H       
  73 H73           -9.6753   -10.4594    -0.1083 H       
  74 H74           -9.7758   -11.0122    -2.4046 H       
  75 H75           -8.7705   -12.4794    -2.1885 H       
  76 H76            0.9555    -2.0351     1.6950 H       
  77 H77            3.6982    -1.1055     0.7307 H       
  78 H78            3.3020    -2.7400     1.3133 H       
  79 H79            2.5667    -2.1276    -0.1876 H       
  80 H80            3.0130    -0.1531     2.9366 H       
  81 H81            1.3933    -0.4968     3.5898 H       
  82 H82            2.6167    -1.7877     3.5192 H       
@<TRIPOS>BOND
   1    1    2 1
   2    1   28 2
   3    1   43 1
   4    2    3 1
   5    2   26 2
   6    3    4 am
   7    3   29 2
   8    4    5 1
   9    4   44 1
  10    5    6 ar
  11    5   10 ar
  12    6    7 ar
  13    6   11 1
  14    7    8 ar
  15    7   45 1
  16    8    9 ar
  17    8   46 1
  18    9   10 ar
  19    9   23 1
  20   10   47 1
  21   11   12 1
  22   11   13 1
  23   12   16 1
  24   12   48 1
  25   12   49 1
  26   13   14 1
  27   13   50 1
  28   13   51 1
  29   14   15 1
  30   14   52 1
  31   14   53 1
  32   15   16 1
  33   15   17 1
  34   16   54 1
  35   16   55 1
  36   17   18 ar
  37   17   19 ar
  38   18   30 1
  39   18   22 ar
  40   19   20 ar
  41   19   56 1
  42   20   21 ar
  43   20   57 1
  44   21   22 ar
  45   21   58 1
  46   22   59 1
  47   23   24 am
  48   23   25 2
  49   24   31 1
  50   24   60 1
  51   26   27 1
  52   26   40 1
  53   27   28 1
  54   30   61 1
  55   30   62 1
  56   30   63 1
  57   31   32 1
  58   31   64 1
  59   31   65 1
  60   32   33 1
  61   32   66 1
  62   32   67 1
  63   33   34 1
  64   33   68 1
  65   33   69 1
  66   34   35 am
  67   34   36 1
  68   35   39 2
  69   35   38 1
  70   36   37 1
  71   36   70 1
  72   36   71 1
  73   37   38 1
  74   37   72 1
  75   37   73 1
  76   38   74 1
  77   38   75 1
  78   40   41 1
  79   40   42 1
  80   40   76 1
  81   41   77 1
  82   41   78 1
  83   41   79 1
  84   42   80 1
  85   42   81 1
  86   42   82 1

#	End of record

