#	Name: ASD09740108
#	Creating user name:	WinNT
#	Creation time:	15. 06. 2019 21:22

#	Modifying user name:	WinNT
#	Modification time:	15. 06. 2019 21:22

#	Program:	/corina/corina34_cracker 3.40 0067  02.08.2006

@<TRIPOS>MOLECULE
ASD09740108
  38   41    0    0    0
SMALL
NO_CHARGES


@<TRIPOS>ATOM
   1 N1            -0.0144     1.2085     0.0087 N.2     
   2 O2             0.0021    -0.0041     0.0020 O.3     
   3 C3             1.2053     1.6818    -0.0004 C.2     
   4 N4             2.0474     0.6290    -0.0141 N.2     
   5 C5             1.2719    -0.4437    -0.0125 C.2     
   6 C6             1.7139    -1.8441    -0.0242 C.2     
   7 C7             1.5914     3.1161     0.0036 C.ar    
   8 C8             0.6218     4.1175     0.0187 C.ar    
   9 C9             1.0273     5.4467     0.0225 C.ar    
  10 N10            2.3137     5.7610     0.0118 N.ar    
  11 C11            3.2568     4.8382    -0.0026 C.ar    
  12 C12            2.9371     3.4967    -0.0018 C.ar    
  13 C13            0.8947    -2.9184    -0.0222 C.2     
  14 C14            1.5688    -4.1304    -0.0356 C.2     
  15 C15            2.9224    -4.0174    -0.0483 C.2     
  16 S16            3.3884    -2.3763    -0.0507 S.3     
  17 C17            0.8703    -5.4399    -0.0353 C.ar    
  18 C18           -0.1330    -5.6970     0.8968 C.ar    
  19 C19            1.2116    -6.4146    -0.9706 C.ar    
  20 C20            0.5589    -7.6306    -0.9658 C.ar    
  21 C21           -0.4328    -7.8825    -0.0349 C.ar    
  22 C22           -0.7792    -6.9165     0.8926 C.ar    
  23 N23            0.0724     6.4571     0.0371 N.pl3   
  24 C24            3.8800    -5.1810    -0.0642 C.3     
  25 F25            4.1633    -5.5336    -1.3881 F       
  26 F26            5.0648    -4.8188     0.5856 F       
  27 F27            3.3009    -6.2706     0.5949 F       
  28 H28           -0.4281     3.8644     0.0271 H       
  29 H29            4.2943     5.1379    -0.0113 H       
  30 H30            3.7165     2.7491    -0.0137 H       
  31 H31           -0.1825    -2.8408    -0.0111 H       
  32 H32           -0.4042    -4.9435     1.6214 H       
  33 H33            1.9852    -6.2187    -1.6984 H       
  34 H34            0.8226    -8.3869    -1.6904 H       
  35 H35           -0.9415    -8.8352    -0.0351 H       
  36 H36           -1.5542    -7.1184     1.6173 H       
  37 H37           -0.8712     6.2325     0.0446 H       
  38 H38            0.3498     7.3866     0.0397 H       
@<TRIPOS>BOND
   1    1    2 1
   2    1    3 2
   3    2    5 1
   4    3    4 1
   5    3    7 1
   6    4    5 2
   7    5    6 1
   8    6   13 2
   9    6   16 1
  10    7    8 ar
  11    7   12 ar
  12    8    9 ar
  13    8   28 1
  14    9   10 ar
  15    9   23 1
  16   10   11 ar
  17   11   12 ar
  18   11   29 1
  19   12   30 1
  20   13   14 1
  21   13   31 1
  22   14   15 2
  23   14   17 1
  24   15   16 1
  25   15   24 1
  26   17   18 ar
  27   17   19 ar
  28   18   22 ar
  29   18   32 1
  30   19   20 ar
  31   19   33 1
  32   20   21 ar
  33   20   34 1
  34   21   22 ar
  35   21   35 1
  36   22   36 1
  37   23   37 1
  38   23   38 1
  39   24   25 1
  40   24   26 1
  41   24   27 1

#	End of record

