#	Name: ASD01814633
#	Creating user name:	WinNT
#	Creation time:	15. 06. 2019 19:32

#	Modifying user name:	WinNT
#	Modification time:	15. 06. 2019 19:32

#	Program:	/corina/corina34_cracker 3.40 0067  02.08.2006

@<TRIPOS>MOLECULE
ASD01814633
  46   49    0    0    0
SMALL
NO_CHARGES


@<TRIPOS>ATOM
   1 C1            -0.0169     1.3972     0.0097 C.2     
   2 C2             0.0021    -0.0041     0.0020 C.2     
   3 C3             1.1986    -0.6593    -0.0129 C.2     
   4 C4             2.3918     0.0821    -0.0204 C.2     
   5 N5             2.3437     1.4497    -0.0122 N.am    
   6 C6             1.1421     2.0937     0.0024 C.2     
   7 C7             3.6227    -0.5889    -0.0356 C.2     
   8 C8             4.7877     0.1218    -0.0425 C.2     
   9 C9             4.7345     1.5280    -0.0346 C.2     
  10 C10            3.4812     2.1736    -0.0189 C.2     
  11 O11            3.4258     3.3917    -0.0123 O.2     
  12 C12            5.9703     2.3140    -0.0413 C.2     
  13 O13            5.9124     3.6618    -0.0337 O.3     
  14 O14            7.0487     1.7516    -0.0537 O.2     
  15 C15            3.6593    -2.0954    -0.0439 C.3     
  16 N16            3.7787    -2.5747    -1.4274 N.3     
  17 C17            4.0556    -4.0209    -1.4629 C.3     
  18 C18            4.0594    -4.4661    -2.9037 C.2     
  19 C19            3.5318    -3.7280    -3.9164 C.2     
  20 C20            2.8804    -2.3834    -3.7055 C.3     
  21 C21            2.5800    -2.2368    -2.2071 C.3     
  22 N22            4.5496    -5.5968    -3.4327 N.pl3   
  23 N23            4.3215    -5.5574    -4.8171 N.2     
  24 C24            3.7098    -4.4326    -5.1016 C.2     
  25 C25            5.2066    -6.6799    -2.6967 C.3     
  26 C26            3.2760    -3.9827    -6.4729 C.3     
  27 F27            3.5232    -5.0026    -7.3981 F       
  28 F28            1.9082    -3.6895    -6.4565 F       
  29 F29            3.9939    -2.8386    -6.8371 F       
  30 H30           -0.9605     1.9226     0.0170 H       
  31 H31           -0.9233    -0.5609     0.0082 H       
  32 H32            1.2282    -1.7389    -0.0187 H       
  33 H33            1.1156     3.1733     0.0087 H       
  34 H34            5.7393    -0.3889    -0.0536 H       
  35 H35            6.7544     4.1373    -0.0385 H       
  36 H36            4.5153    -2.4412     0.5356 H       
  37 H37            2.7412    -2.4836     0.3971 H       
  38 H38            5.0288    -4.2199    -1.0142 H       
  39 H39            3.2810    -4.5570    -0.9147 H       
  40 H40            3.5573    -1.5912    -4.0255 H       
  41 H41            1.9525    -2.3294    -4.2748 H       
  42 H42            1.7671    -2.9091    -1.9326 H       
  43 H43            2.2871    -1.2086    -1.9947 H       
  44 H44            4.4601    -7.4070    -2.3770 H       
  45 H45            5.9359    -7.1682    -3.3432 H       
  46 H46            5.7127    -6.2703    -1.8225 H       
@<TRIPOS>BOND
   1    1    2 1
   2    1    6 2
   3    1   30 1
   4    2    3 2
   5    2   31 1
   6    3    4 1
   7    3   32 1
   8    4    5 1
   9    4    7 2
  10    5    6 1
  11    5   10 am
  12    6   33 1
  13    7    8 1
  14    7   15 1
  15    8    9 2
  16    8   34 1
  17    9   10 1
  18    9   12 1
  19   10   11 2
  20   12   13 1
  21   12   14 2
  22   13   35 1
  23   15   16 1
  24   15   36 1
  25   15   37 1
  26   16   17 1
  27   16   21 1
  28   17   18 1
  29   17   38 1
  30   17   39 1
  31   18   19 2
  32   18   22 1
  33   19   20 1
  34   19   24 1
  35   20   21 1
  36   20   40 1
  37   20   41 1
  38   21   42 1
  39   21   43 1
  40   22   23 1
  41   22   25 1
  42   23   24 2
  43   24   26 1
  44   25   44 1
  45   25   45 1
  46   25   46 1
  47   26   27 1
  48   26   28 1
  49   26   29 1

#	End of record

