#	Name: ASD03330619
#	Creating user name:	WinNT
#	Creation time:	15. 06. 2019 20:37

#	Modifying user name:	WinNT
#	Modification time:	15. 06. 2019 20:37

#	Program:	/corina/corina34_cracker 3.40 0067  02.08.2006

@<TRIPOS>MOLECULE
ASD03330619
  67   69    0    0    0
SMALL
NO_CHARGES


@<TRIPOS>ATOM
   1 C1            -0.3240     1.1646     0.8307 C.2     
   2 N2            -0.3565    -0.1678     1.0620 N.pl3   
   3 C3             0.9828     1.5501     0.8820 C.2     
   4 N4             1.7267     0.4510     1.1252 N.2     
   5 C5             0.9312    -0.5879     1.2292 C.2     
   6 C6             1.3585    -1.9801     1.4853 C.ar    
   7 C7             1.4918     2.9219     0.7034 C.2     
   8 O8             0.7174     3.8345     0.4875 O.2     
   9 C9             3.3211     4.5282     0.6018 C.3     
  10 N10            2.8153     3.1648     0.7793 N.am    
  11 C11            3.5030     4.8144    -0.8901 C.3     
  12 C12            2.1385     4.8011    -1.5821 C.3     
  13 C13            4.1528     6.1878    -1.0704 C.3     
  14 C14            4.3996     3.7407    -1.5099 C.3     
  15 C15            4.6465     4.6678     1.3053 C.2     
  16 N16            5.1840     5.8893     1.4938 N.am    
  17 O17            5.2295     3.6810     1.7018 O.2     
  18 C18            6.5053     6.0206     2.1129 C.3     
  19 C19           -1.5680    -0.9896     1.1311 C.3     
  20 C20           -2.4697    -0.6577    -0.0618 C.3     
  21 C21           -3.3817     0.5129     0.2918 C.3     
  22 N22           -2.7059     1.4525     1.1891 N.3     
  23 C23           -1.5184     2.0396     0.5511 C.3     
  24 C24           -3.6290     2.4993     1.6474 C.3     
  25 C25            2.6142    -2.4151     1.0559 C.ar    
  26 C26            3.0123    -3.7110     1.2941 C.ar    
  27 C27            2.1600    -4.5913     1.9655 C.ar    
  28 C28            0.9038    -4.1558     2.3949 C.ar    
  29 C29            0.5086    -2.8581     2.1615 C.ar    
  30 C30            2.5868    -5.9824     2.2209 C.2     
  31 N31            1.7645    -6.8315     2.8685 N.am    
  32 O32            3.6797    -6.3613     1.8468 O.2     
  33 C33            2.1877    -8.2109     3.1218 C.3     
  34 H34            2.6093     5.2377     1.0237 H       
  35 H35            3.4329     2.4369     0.9516 H       
  36 H36            1.4997     5.5660    -1.1406 H       
  37 H37            2.2680     5.0050    -2.6449 H       
  38 H38            1.6755     3.8227    -1.4536 H       
  39 H39            5.1111     6.2073    -0.5513 H       
  40 H40            4.3107     6.3785    -2.1319 H       
  41 H41            3.4996     6.9560    -0.6565 H       
  42 H42            3.9367     2.7623    -1.3814 H       
  43 H43            4.5292     3.9446    -2.5727 H       
  44 H44            5.3717     3.7502    -1.0169 H       
  45 H45            4.6960     6.6815     1.2196 H       
  46 H46            6.4832     5.5856     3.1120 H       
  47 H47            7.2446     5.4985     1.5055 H       
  48 H48            6.7711     7.0755     2.1816 H       
  49 H49           -1.2950    -2.0443     1.0990 H       
  50 H50           -2.0991    -0.7781     2.0591 H       
  51 H51           -1.8525    -0.3902    -0.9195 H       
  52 H52           -3.0769    -1.5281    -0.3105 H       
  53 H53           -3.6670     1.0333    -0.6224 H       
  54 H54           -4.2785     0.1328     0.7811 H       
  55 H55           -1.3425     3.0363     0.9558 H       
  56 H56           -1.6780     2.1052    -0.5252 H       
  57 H57           -4.4607     2.0414     2.1829 H       
  58 H58           -3.1015     3.1834     2.3121 H       
  59 H59           -4.0098     3.0499     0.7872 H       
  60 H60            3.2729    -1.7347     0.5366 H       
  61 H61            3.9833    -4.0474     0.9617 H       
  62 H62            0.2448    -4.8360     2.9139 H       
  63 H63           -0.4623    -2.5213     2.4937 H       
  64 H64            0.8925    -6.5291     3.1670 H       
  65 H65            2.3873    -8.7097     2.1733 H       
  66 H66            3.0935    -8.2076     3.7281 H       
  67 H67            1.3973    -8.7419     3.6523 H       
@<TRIPOS>BOND
   1    1    2 1
   2    1    3 2
   3    1   23 1
   4    2   19 1
   5    2    5 1
   6    3    4 1
   7    3    7 1
   8    4    5 2
   9    5    6 1
  10    6   25 ar
  11    6   29 ar
  12    7    8 2
  13    7   10 am
  14    9   10 1
  15    9   11 1
  16    9   15 1
  17    9   34 1
  18   10   35 1
  19   11   12 1
  20   11   13 1
  21   11   14 1
  22   12   36 1
  23   12   37 1
  24   12   38 1
  25   13   39 1
  26   13   40 1
  27   13   41 1
  28   14   42 1
  29   14   43 1
  30   14   44 1
  31   15   16 am
  32   15   17 2
  33   16   18 1
  34   16   45 1
  35   18   46 1
  36   18   47 1
  37   18   48 1
  38   19   20 1
  39   19   49 1
  40   19   50 1
  41   20   21 1
  42   20   51 1
  43   20   52 1
  44   21   22 1
  45   21   53 1
  46   21   54 1
  47   22   23 1
  48   22   24 1
  49   23   55 1
  50   23   56 1
  51   24   57 1
  52   24   58 1
  53   24   59 1
  54   25   26 ar
  55   25   60 1
  56   26   27 ar
  57   26   61 1
  58   27   28 ar
  59   27   30 1
  60   28   29 ar
  61   28   62 1
  62   29   63 1
  63   30   31 am
  64   30   32 2
  65   31   33 1
  66   31   64 1
  67   33   65 1
  68   33   66 1
  69   33   67 1

#	End of record

