#	Name: ASD03540112
#	Creating user name:	WinNT
#	Creation time:	15. 06. 2019 20:42

#	Modifying user name:	WinNT
#	Modification time:	15. 06. 2019 20:42

#	Program:	/corina/corina34_cracker 3.40 0067  02.08.2006

@<TRIPOS>MOLECULE
ASD03540112
  49   52    0    0    0
SMALL
NO_CHARGES


@<TRIPOS>ATOM
   1 C1            -0.0180     1.4744     0.0101 C.2     
   2 C2             0.0021    -0.0041     0.0020 C.ar    
   3 C3             1.2171    -0.6858    -0.0132 C.ar    
   4 C4             1.2272    -2.0787    -0.0203 C.ar    
   5 C5             2.5119    -2.8104    -0.0360 C.2     
   6 C6             0.0206    -2.7829    -0.0121 C.ar    
   7 C7            -1.1799    -2.1012     0.0030 C.ar    
   8 C8            -1.1968    -0.7203     0.0155 C.ar    
   9 O9             1.0263     2.0964     0.0035 O.2     
  10 N10           -1.1942     2.1323     0.0193 N.am    
  11 O11            3.5609    -2.1964    -0.0428 O.2     
  12 N12            2.5199    -4.1581    -0.0429 N.am    
  13 C13            3.7929    -4.8830    -0.0584 C.3     
  14 C14            3.5262    -6.3662    -0.0634 C.ar    
  15 C15            3.3927    -7.0405    -1.2628 C.ar    
  16 C16            3.1481    -8.4010    -1.2673 C.ar    
  17 C17            3.0375    -9.0874    -0.0725 C.ar    
  18 C18            3.1719    -8.4133     1.1269 C.ar    
  19 C19            3.4208    -7.0535     1.1313 C.ar    
  20 C20           -1.2141     3.5972     0.0274 C.3     
  21 O21           -6.5319     5.3959     0.3232 O.3     
  22 C22           -6.5045     5.8166     1.7000 C.3     
  23 O23           -5.4520     5.0230     2.2794 O.3     
  24 C24           -4.6011     4.7390     1.2505 C.ar    
  25 C25           -5.2652     4.9683     0.0476 C.ar    
  26 C26           -3.2894     4.2947     1.2394 C.ar    
  27 C27           -2.6415     4.0801     0.0368 C.ar    
  28 C28           -3.3002     4.3081    -1.1567 C.ar    
  29 C29           -4.6101     4.7513    -1.1533 C.ar    
  30 H30            2.1471    -0.1367    -0.0199 H       
  31 H31            0.0269    -3.8628    -0.0180 H       
  32 H32           -2.1098    -2.6503     0.0090 H       
  33 H33           -2.1393    -0.1932     0.0318 H       
  34 H34           -2.0276     1.6360     0.0206 H       
  35 H35            1.6827    -4.6481    -0.0375 H       
  36 H36            4.3545    -4.6118    -0.9524 H       
  37 H37            4.3712    -4.6208     0.8275 H       
  38 H38            3.4792    -6.5043    -2.1962 H       
  39 H39            3.0431    -8.9277    -2.2043 H       
  40 H40            2.8456   -10.1502    -0.0760 H       
  41 H41            3.0851    -8.9495     2.0603 H       
  42 H42            3.5294    -6.5275     2.0683 H       
  43 H43           -0.7010     3.9626     0.9169 H       
  44 H44           -0.7094     3.9723    -0.8630 H       
  45 H45           -6.2675     6.8781     1.7714 H       
  46 H46           -7.4569     5.6024     2.1849 H       
  47 H47           -2.7720     4.1164     2.1705 H       
  48 H48           -2.7910     4.1393    -2.0940 H       
  49 H49           -5.1226     4.9279    -2.0874 H       
@<TRIPOS>BOND
   1    1    2 1
   2    1    9 2
   3    1   10 am
   4    2    3 ar
   5    2    8 ar
   6    3    4 ar
   7    3   30 1
   8    4    5 1
   9    4    6 ar
  10    5   11 2
  11    5   12 am
  12    6    7 ar
  13    6   31 1
  14    7    8 ar
  15    7   32 1
  16    8   33 1
  17   10   20 1
  18   10   34 1
  19   12   13 1
  20   12   35 1
  21   13   14 1
  22   13   36 1
  23   13   37 1
  24   14   15 ar
  25   14   19 ar
  26   15   16 ar
  27   15   38 1
  28   16   17 ar
  29   16   39 1
  30   17   18 ar
  31   17   40 1
  32   18   19 ar
  33   18   41 1
  34   19   42 1
  35   20   27 1
  36   20   43 1
  37   20   44 1
  38   21   22 1
  39   21   25 1
  40   22   23 1
  41   22   45 1
  42   22   46 1
  43   23   24 1
  44   24   25 ar
  45   24   26 ar
  46   25   29 ar
  47   26   27 ar
  48   26   47 1
  49   27   28 ar
  50   28   29 ar
  51   28   48 1
  52   29   49 1

#	End of record

