#	Name: ASD01590002
#	Creating user name:	WinNT
#	Creation time:	15. 06. 2019 19:22

#	Modifying user name:	WinNT
#	Modification time:	15. 06. 2019 19:22

#	Program:	/corina/corina34_cracker 3.40 0067  02.08.2006

@<TRIPOS>MOLECULE
ASD01590002
  63   67    0    0    0
SMALL
NO_CHARGES


@<TRIPOS>ATOM
   1 N1             0.0175    -1.1399    -0.0042 N.1     
   2 C2             0.0021    -0.0041     0.0020 C.1     
   3 C3            -0.0173     1.4278     0.0099 C.ar    
   4 C4             1.1873     2.1447     0.0022 C.ar    
   5 C5             1.1851     3.5084     0.0100 C.ar    
   6 C6            -0.0194     4.2081     0.0258 C.ar    
   7 C7            -1.2370     3.4996     0.0331 C.ar    
   8 C8            -1.2325     2.1069     0.0193 C.ar    
   9 C9            -2.2953     4.5135     0.0494 C.2     
  10 C10           -3.7807     4.2597     0.0625 C.3     
  11 C11           -4.2481     4.0416     1.5029 C.3     
  12 C12           -5.7562     3.7839     1.5162 C.3     
  13 C13           -6.2236     3.5657     2.9566 C.3     
  14 N14           -7.6716     3.3183     2.9694 N.3     
  15 C15           -8.1176     2.8723     4.2955 C.3     
  16 C16           -9.5971     2.4859     4.2343 C.3     
  17 C17          -10.4173     3.6963     3.7797 C.3     
  18 C18           -9.9010     4.1708     2.4186 C.3     
  19 C19           -8.4127     4.5084     2.5324 C.3     
  20 N20          -11.8274     3.3164     3.6632 N.am    
  21 C21          -12.7895     4.2533     3.7772 C.2     
  22 O22          -12.4871     5.4140     3.9768 O.2     
  23 C23          -14.2094     3.8707     3.6598 C.ar    
  24 C24          -14.5606     2.5419     3.4311 C.ar    
  25 C25          -15.8900     2.1772     3.3201 C.ar    
  26 C26          -16.8879     3.1235     3.4342 C.ar    
  27 C27          -16.5600     4.4574     3.6628 C.ar    
  28 C28          -15.2160     4.8431     3.7837 C.ar    
  29 N29          -15.1916     6.1990     4.0025 N.pl3   
  30 C30          -16.4544     6.6987     4.0274 C.2     
  31 C31          -17.3506     5.6911     3.8311 C.2     
  32 C32          -18.7772     5.8081     3.7889 C.1     
  33 N33          -19.9089     5.9010     3.7555 N.1     
  34 C34           -1.6894     5.7109     0.0508 C.2     
  35 N35           -0.3308     5.5473     0.0368 N.pl3   
  36 H36            2.1266     1.6118    -0.0096 H       
  37 H37            2.1206     4.0480     0.0044 H       
  38 H38           -2.1631     1.5589     0.0249 H       
  39 H39           -4.2999     5.1191    -0.3618 H       
  40 H40           -4.0029     3.3721    -0.5300 H       
  41 H41           -3.7289     3.1822     1.9272 H       
  42 H42           -4.0259     4.9291     2.0953 H       
  43 H43           -6.2754     4.6432     1.0919 H       
  44 H44           -5.9784     2.8963     0.9238 H       
  45 H45           -5.7044     2.7064     3.3809 H       
  46 H46           -6.0015     4.4533     3.5490 H       
  47 H47           -7.5292     2.0086     4.6050 H       
  48 H48           -7.9827     3.6801     5.0147 H       
  49 H49           -9.7308     1.6688     3.5254 H       
  50 H50           -9.9318     2.1697     5.2222 H       
  51 H51          -10.3148     4.5003     4.5086 H       
  52 H52          -10.0395     3.3802     1.6811 H       
  53 H53          -10.4529     5.0585     2.1093 H       
  54 H54           -8.2764     5.3085     3.2599 H       
  55 H55           -8.0386     4.8330     1.5614 H       
  56 H56          -12.0686     2.3904     3.5039 H       
  57 H57          -13.7893     1.7915     3.3394 H       
  58 H58          -16.1491     1.1440     3.1424 H       
  59 H59          -17.9234     2.8296     3.3458 H       
  60 H60          -14.3858     6.7255     4.1227 H       
  61 H61          -16.7097     7.7364     4.1835 H       
  62 H62           -2.1988     6.6632     0.0607 H       
  63 H63            0.3169     6.2694     0.0355 H       
@<TRIPOS>BOND
   1    1    2 3
   2    2    3 1
   3    3    4 ar
   4    3    8 ar
   5    4    5 ar
   6    4   36 1
   7    5    6 ar
   8    5   37 1
   9    6    7 ar
  10    6   35 1
  11    7    8 ar
  12    7    9 1
  13    8   38 1
  14    9   10 1
  15    9   34 2
  16   10   11 1
  17   10   39 1
  18   10   40 1
  19   11   12 1
  20   11   41 1
  21   11   42 1
  22   12   13 1
  23   12   43 1
  24   12   44 1
  25   13   14 1
  26   13   45 1
  27   13   46 1
  28   14   15 1
  29   14   19 1
  30   15   16 1
  31   15   47 1
  32   15   48 1
  33   16   17 1
  34   16   49 1
  35   16   50 1
  36   17   18 1
  37   17   20 1
  38   17   51 1
  39   18   19 1
  40   18   52 1
  41   18   53 1
  42   19   54 1
  43   19   55 1
  44   20   21 am
  45   20   56 1
  46   21   22 2
  47   21   23 1
  48   23   24 ar
  49   23   28 ar
  50   24   25 ar
  51   24   57 1
  52   25   26 ar
  53   25   58 1
  54   26   27 ar
  55   26   59 1
  56   27   28 ar
  57   27   31 1
  58   28   29 1
  59   29   30 1
  60   29   60 1
  61   30   31 2
  62   30   61 1
  63   31   32 1
  64   32   33 3
  65   34   35 1
  66   34   62 1
  67   35   63 1

#	End of record

