#	Name: ASD01885012
#	Creating user name:	WinNT
#	Creation time:	15. 06. 2019 19:49

#	Modifying user name:	WinNT
#	Modification time:	15. 06. 2019 19:49

#	Program:	/corina/corina34_cracker 3.40 0067  02.08.2006

@<TRIPOS>MOLECULE
ASD01885012
  52   56    0    0    0
SMALL
NO_CHARGES


@<TRIPOS>ATOM
   1 C1            -0.0398     1.4459     0.0067 C.2     
   2 C2            -0.8942     1.4937    -1.1160 C.2     
   3 C3            -2.0601     0.8182    -1.1118 C.2     
   4 N4            -2.4321     0.0803    -0.0258 N.pl3   
   5 C5            -1.6244     0.0121     1.0833 C.2     
   6 C6            -0.4007     0.7041     1.0993 C.2     
   7 Cl7            0.6331     0.6298     2.4919 Cl      
   8 C8            -3.5226    -0.6871     0.2606 C.2     
   9 N9            -3.3574    -1.1713     1.4634 N.2     
  10 N10           -2.2415    -0.7662     1.9594 N.2     
  11 N11            1.1652     2.1443     0.0007 N.pl3   
  12 C12            2.4505     1.4329     0.0726 C.3     
  13 C13            3.3477     1.9322    -1.0649 C.3     
  14 N14            3.4440     3.3966    -1.0015 N.3     
  15 C15            2.1332     4.0264    -1.2094 C.3     
  16 C16            1.1864     3.6126    -0.0840 C.3     
  17 C17            4.3831     3.8778    -1.9208 C.ar    
  18 C18            5.7337     3.5758    -1.7620 C.ar    
  19 C19            6.6596     4.0539    -2.6740 C.ar    
  20 C20            6.2440     4.8303    -3.7402 C.ar    
  21 C21            4.9021     5.1320    -3.8995 C.ar    
  22 C22            3.9705     4.6519    -2.9955 C.ar    
  23 C23           -4.7028    -0.9315    -0.6441 C.3     
  24 C24           -4.4371    -2.1669    -1.5066 C.3     
  25 C25           -5.5698    -2.6524    -2.4133 C.3     
  26 C26           -4.3450    -1.9652    -3.0204 C.3     
  27 O27            6.1424     2.8126    -0.7124 O.3     
  28 C28            7.5422     2.5430    -0.6126 C.3     
  29 F29            4.5008     5.8912    -4.9424 F       
  30 H30           -0.6124     2.0744    -1.9818 H       
  31 H31           -2.7065     0.8615    -1.9759 H       
  32 H32            2.9279     1.6354     1.0313 H       
  33 H33            2.2825     0.3615    -0.0369 H       
  34 H34            4.3419     1.4975    -0.9616 H       
  35 H35            2.9189     1.6370    -2.0226 H       
  36 H36            2.2466     5.1105    -1.2109 H       
  37 H37            1.7214     3.7021    -2.1651 H       
  38 H38            0.1833     3.9833    -0.2945 H       
  39 H39            1.5404     4.0228     0.8618 H       
  40 H40            7.7071     3.8207    -2.5522 H       
  41 H41            6.9678     5.2025    -4.4501 H       
  42 H42            2.9241     4.8878    -3.1213 H       
  43 H43           -5.5956    -1.0949    -0.0405 H       
  44 H44           -4.8530    -0.0646    -1.2876 H       
  45 H45           -3.7917    -2.9227    -1.0591 H       
  46 H46           -5.6693    -3.7275    -2.5627 H       
  47 H47           -6.5043    -2.0916    -2.3955 H       
  48 H48           -4.4737    -0.9523    -3.4019 H       
  49 H49           -3.6388    -2.5882    -3.5691 H       
  50 H50            7.8751     2.0147    -1.5060 H       
  51 H51            8.0876     3.4824    -0.5216 H       
  52 H52            7.7317     1.9264     0.2660 H       
@<TRIPOS>BOND
   1    1    2 1
   2    1   11 1
   3    1    6 2
   4    2    3 2
   5    2   30 1
   6    3    4 1
   7    3   31 1
   8    4    5 1
   9    4    8 1
  10    5    6 1
  11    5   10 2
  12    6    7 1
  13    8    9 2
  14    8   23 1
  15    9   10 1
  16   11   12 1
  17   11   16 1
  18   12   13 1
  19   12   32 1
  20   12   33 1
  21   13   14 1
  22   13   34 1
  23   13   35 1
  24   14   15 1
  25   14   17 1
  26   15   16 1
  27   15   36 1
  28   15   37 1
  29   16   38 1
  30   16   39 1
  31   17   18 ar
  32   17   22 ar
  33   18   19 ar
  34   18   27 1
  35   19   20 ar
  36   19   40 1
  37   20   21 ar
  38   20   41 1
  39   21   22 ar
  40   21   29 1
  41   22   42 1
  42   23   24 1
  43   23   43 1
  44   23   44 1
  45   24   25 1
  46   24   26 1
  47   24   45 1
  48   25   26 1
  49   25   46 1
  50   25   47 1
  51   26   48 1
  52   26   49 1
  53   27   28 1
  54   28   50 1
  55   28   51 1
  56   28   52 1

#	End of record

