#	Name: ASD01880328
#	Creating user name:	WinNT
#	Creation time:	15. 06. 2019 19:40

#	Modifying user name:	WinNT
#	Modification time:	15. 06. 2019 19:40

#	Program:	/corina/corina34_cracker 3.40 0067  02.08.2006

@<TRIPOS>MOLECULE
ASD01880328
  35   36    0    0    0
SMALL
NO_CHARGES


@<TRIPOS>ATOM
   1 C1            -0.0158     1.3166     0.0093 C.ar    
   2 N2             0.0021    -0.0041     0.0020 N.ar    
   3 C3            -1.1218    -0.7055     0.0094 C.ar    
   4 C4            -2.3611    -0.0158     0.0254 C.ar    
   5 C5            -2.3234     1.3812     0.0325 C.ar    
   6 N6            -1.1363     2.0007     0.0291 N.ar    
   7 C7            -3.7205    -0.5227     0.0357 C.2     
   8 C8            -4.6572     0.4056     0.0497 C.2     
   9 S9            -3.9623     2.0156     0.0517 S.3     
  10 C10            1.2933     2.0630     0.0008 C.3     
  11 C11           -6.1367     0.1192     0.0623 C.3     
  12 N12           -1.0871    -2.0883     0.0012 N.pl3   
  13 C13            0.1995    -2.7886    -0.0158 C.3     
  14 C14            0.0285    -4.1842     0.5876 C.3     
  15 C15           -0.3387    -4.0602     2.0439 C.2     
  16 C16           -1.4202    -4.6430     2.4987 C.2     
  17 C17            0.0201    -2.3387    -2.4089 C.2     
  18 C18            0.6856    -2.9120    -1.4369 C.2     
  19 H19           -3.9477    -1.5785     0.0318 H       
  20 H20            1.5991     2.2485    -1.0289 H       
  21 H21            1.1731     3.0133     0.5209 H       
  22 H22            2.0546     1.4670     0.5042 H       
  23 H23           -6.4835     0.0446     1.0929 H       
  24 H24           -6.6674     0.9266    -0.4421 H       
  25 H25           -6.3292    -0.8209    -0.4548 H       
  26 H26           -1.9147    -2.5942     0.0067 H       
  27 H27            0.9271    -2.2263     0.5695 H       
  28 H28           -0.7623    -4.7149     0.0575 H       
  29 H29            0.9631    -4.7374     0.4944 H       
  30 H30            0.2898    -3.4908     2.7127 H       
  31 H31           -1.6833    -4.5541     3.5424 H       
  32 H32           -2.0486    -5.2124     1.8299 H       
  33 H33            0.3684    -2.4271    -3.4273 H       
  34 H34           -0.8768    -1.7778    -2.1917 H       
  35 H35            1.5825    -3.4730    -1.6541 H       
@<TRIPOS>BOND
   1    1    2 ar
   2    1   10 1
   3    1    6 ar
   4    2    3 ar
   5    3    4 ar
   6    3   12 1
   7    4    5 ar
   8    4    7 1
   9    5    6 ar
  10    5    9 1
  11    7    8 2
  12    7   19 1
  13    8    9 1
  14    8   11 1
  15   10   20 1
  16   10   21 1
  17   10   22 1
  18   11   23 1
  19   11   24 1
  20   11   25 1
  21   12   13 1
  22   12   26 1
  23   13   14 1
  24   13   18 1
  25   13   27 1
  26   14   15 1
  27   14   28 1
  28   14   29 1
  29   15   16 2
  30   15   30 1
  31   16   31 1
  32   16   32 1
  33   17   18 2
  34   17   33 1
  35   17   34 1
  36   18   35 1

#	End of record

