#	Name: ASD01910862
#	Creating user name:	WinNT
#	Creation time:	15. 06. 2019 19:56

#	Modifying user name:	WinNT
#	Modification time:	15. 06. 2019 19:56

#	Program:	/corina/corina34_cracker 3.40 0067  02.08.2006

@<TRIPOS>MOLECULE
ASD01910862
  51   54    0    0    0
SMALL
NO_CHARGES


@<TRIPOS>ATOM
   1 C1             0.0946     1.9516    -0.7305 C.ar    
   2 C2             0.3277     1.2384     0.4377 C.ar    
   3 C3             1.4870     0.4896     0.5339 C.ar    
   4 C4             2.3747     0.4767    -0.5369 C.ar    
   5 N5             2.1167     1.1710    -1.6346 N.ar    
   6 C6             1.0191     1.8934    -1.7543 C.ar    
   7 N7             3.5434    -0.2713    -0.4538 N.3     
   8 C8             4.7270     0.5987    -0.4619 C.3     
   9 C9             5.9776    -0.2434    -0.1877 C.3     
  10 N10            6.0147    -1.3529    -1.1525 N.am    
  11 C11            4.8125    -2.1872    -1.3000 C.3     
  12 C12            3.6077    -1.2687    -1.5304 C.3     
  13 C13            7.1211    -1.5987    -1.8818 C.2     
  14 C14            7.1808    -2.7898    -2.7560 C.ar    
  15 C15            7.9033    -2.7456    -3.9504 C.ar    
  16 C16            7.9602    -3.8566    -4.7691 C.ar    
  17 C17            7.3045    -5.0180    -4.4140 C.ar    
  18 C18            6.5772    -5.0768    -3.2210 C.ar    
  19 C19            6.5211    -3.9601    -2.3871 C.ar    
  20 C20            5.8964    -6.2820    -2.8538 C.1     
  21 O21            8.0699    -0.8414    -1.8209 O.2     
  22 C22            5.3383    -7.2700    -2.5527 C.1     
  23 C23            4.6575    -8.4751    -2.1855 C.ar    
  24 N24            3.9679    -8.5238    -1.0498 N.ar    
  25 C25            3.3282    -9.6134    -0.6776 C.ar    
  26 C26            3.3509   -10.7534    -1.4601 C.ar    
  27 C27            4.0588   -10.7473    -2.6546 C.ar    
  28 C28            4.7179    -9.5897    -3.0262 C.ar    
  29 C29            1.7843    -0.3009     1.7820 C.3     
  30 F30            0.7935    -0.0530     2.7381 F       
  31 F31            1.8055    -1.6657     1.4755 F       
  32 F32            3.0298     0.0822     2.2910 F       
  33 H33           -0.8030     2.5424    -0.8390 H       
  34 H34           -0.3798     1.2678     1.2531 H       
  35 H35            0.8419     2.4469    -2.6645 H       
  36 H36            4.8185     1.0792    -1.4360 H       
  37 H37            4.6242     1.3598     0.3115 H       
  38 H38            6.8680     0.3743    -0.3056 H       
  39 H39            5.9361    -0.6411     0.8263 H       
  40 H40            4.9325    -2.8548    -2.1532 H       
  41 H41            4.6590    -2.7718    -0.3929 H       
  42 H42            2.6932    -1.8618    -1.5320 H       
  43 H43            3.7148    -0.7621    -2.4896 H       
  44 H44            8.4186    -1.8402    -4.2349 H       
  45 H45            8.5202    -3.8163    -5.6916 H       
  46 H46            7.3529    -5.8830    -5.0590 H       
  47 H47            5.9611    -3.9994    -1.4645 H       
  48 H48            2.7783    -9.6165     0.2519 H       
  49 H49            2.8228   -11.6411    -1.1445 H       
  50 H50            4.0906   -11.6260    -3.2818 H       
  51 H51            5.2776    -9.5502    -3.9491 H       
@<TRIPOS>BOND
   1    1    2 ar
   2    1    6 ar
   3    1   33 1
   4    2    3 ar
   5    2   34 1
   6    3    4 ar
   7    3   29 1
   8    4    5 ar
   9    4    7 1
  10    5    6 ar
  11    6   35 1
  12    7    8 1
  13    7   12 1
  14    8    9 1
  15    8   36 1
  16    8   37 1
  17    9   10 1
  18    9   38 1
  19    9   39 1
  20   10   11 1
  21   10   13 am
  22   11   12 1
  23   11   40 1
  24   11   41 1
  25   12   42 1
  26   12   43 1
  27   13   14 1
  28   13   21 2
  29   14   15 ar
  30   14   19 ar
  31   15   16 ar
  32   15   44 1
  33   16   17 ar
  34   16   45 1
  35   17   18 ar
  36   17   46 1
  37   18   19 ar
  38   18   20 1
  39   19   47 1
  40   20   22 3
  41   22   23 1
  42   23   24 ar
  43   23   28 ar
  44   24   25 ar
  45   25   26 ar
  46   25   48 1
  47   26   27 ar
  48   26   49 1
  49   27   28 ar
  50   27   50 1
  51   28   51 1
  52   29   30 1
  53   29   31 1
  54   29   32 1

#	End of record

