#	Name: ASD05380015
#	Creating user name:	WinNT
#	Creation time:	15. 06. 2019 20:59

#	Modifying user name:	WinNT
#	Modification time:	15. 06. 2019 20:59

#	Program:	/corina/corina34_cracker 3.40 0067  02.08.2006

@<TRIPOS>MOLECULE
ASD05380015
  52   56    0    0    0
SMALL
NO_CHARGES


@<TRIPOS>ATOM
   1 C1            -0.1741     1.5678    -0.4536 C.ar    
   2 C2             0.0293     0.2522     0.0200 C.ar    
   3 C3             0.8975     2.3017    -0.9574 C.ar    
   4 C4             2.1531     1.7349    -0.9896 C.ar    
   5 C5             2.3565     0.4422    -0.5256 C.ar    
   6 C6             1.3109    -0.2997    -0.0228 C.ar    
   7 C7             0.6851     3.7050    -1.4640 C.3     
   8 N8            -1.0289    -0.4432     0.5066 N.2     
   9 C9            -2.2206     0.0707     0.5470 C.2     
  10 N10           -2.5079     1.3279     0.1133 N.am    
  11 C11           -1.5341     2.1225    -0.3888 C.2     
  12 C12           -3.8220     1.8059     0.1921 C.ar    
  13 C13           -4.7012     1.6016    -0.8632 C.ar    
  14 C14           -4.2502     2.4802     1.3280 C.ar    
  15 C15           -5.5468     2.9499     1.4028 C.ar    
  16 C16           -6.4185     2.7490     0.3483 C.ar    
  17 C17           -5.9965     2.0738    -0.7823 C.ar    
  18 C18           -3.3427    -0.7682     1.1022 C.3     
  19 N19           -3.1385    -2.1688     0.7241 N.pl3   
  20 C20           -4.2198    -3.0289     0.6450 C.ar    
  21 N21           -5.4501    -2.6006     0.9086 N.ar    
  22 O22           -1.7767     3.2492    -0.7804 O.2     
  23 C23           -4.0433    -4.3737     0.2784 C.ar    
  24 C24           -5.1791    -5.1988     0.2153 C.ar    
  25 N25           -6.3694    -4.6821     0.5022 N.ar    
  26 C26           -6.4876    -3.4141     0.8357 C.ar    
  27 N27           -2.9758    -5.1378    -0.0562 N.2     
  28 C28           -3.3743    -6.3495    -0.3143 C.2     
  29 N29           -4.7260    -6.4379    -0.1608 N.pl3   
  30 C30           -3.3619    -0.6493     2.6274 C.3     
  31 C31           -4.5747    -1.3992     3.1822 C.3     
  32 H32            2.9862     2.3009    -1.3796 H       
  33 H33            3.3471     0.0133    -0.5589 H       
  34 H34            1.4814    -1.3039     0.3360 H       
  35 H35            0.7106     4.4016    -0.6259 H       
  36 H36            1.4741     3.9592    -2.1718 H       
  37 H37           -0.2831     3.7694    -1.9606 H       
  38 H38           -4.3722     1.0742    -1.7465 H       
  39 H39           -3.5701     2.6368     2.1522 H       
  40 H40           -5.8804     3.4744     2.2860 H       
  41 H41           -7.4321     3.1167     0.4095 H       
  42 H42           -6.6795     1.9188    -1.6044 H       
  43 H43           -4.2925    -0.4177     0.6984 H       
  44 H44           -2.2454    -2.4933     0.5293 H       
  45 H45           -7.4701    -3.0247     1.0586 H       
  46 H46           -2.7293    -7.1649    -0.6069 H       
  47 H47           -5.2679    -7.2316    -0.2925 H       
  48 H48           -2.4490    -1.0814     3.0371 H       
  49 H49           -3.4247     0.4018     2.9092 H       
  50 H50           -4.5119    -2.4503     2.9005 H       
  51 H51           -4.5884    -1.3145     4.2688 H       
  52 H52           -5.4877    -0.9672     2.7725 H       
@<TRIPOS>BOND
   1    1    2 ar
   2    1    3 ar
   3    1   11 1
   4    2    8 1
   5    2    6 ar
   6    3    4 ar
   7    3    7 1
   8    4    5 ar
   9    4   32 1
  10    5    6 ar
  11    5   33 1
  12    6   34 1
  13    7   35 1
  14    7   36 1
  15    7   37 1
  16    8    9 2
  17    9   10 1
  18    9   18 1
  19   10   11 am
  20   10   12 1
  21   11   22 2
  22   12   13 ar
  23   12   14 ar
  24   13   17 ar
  25   13   38 1
  26   14   15 ar
  27   14   39 1
  28   15   16 ar
  29   15   40 1
  30   16   17 ar
  31   16   41 1
  32   17   42 1
  33   18   19 1
  34   18   30 1
  35   18   43 1
  36   19   20 1
  37   19   44 1
  38   20   21 ar
  39   20   23 ar
  40   21   26 ar
  41   23   24 ar
  42   23   27 1
  43   24   25 ar
  44   24   29 1
  45   25   26 ar
  46   26   45 1
  47   27   28 2
  48   28   29 1
  49   28   46 1
  50   29   47 1
  51   30   31 1
  52   30   48 1
  53   30   49 1
  54   31   50 1
  55   31   51 1
  56   31   52 1

#	End of record

