#	Name: ASD01917681
#	Creating user name:	WinNT
#	Creation time:	15. 06. 2019 20:09

#	Modifying user name:	WinNT
#	Modification time:	15. 06. 2019 20:09

#	Program:	/corina/corina34_cracker 3.40 0067  02.08.2006

@<TRIPOS>MOLECULE
ASD01917681
  58   61    0    0    0
SMALL
NO_CHARGES


@<TRIPOS>ATOM
   1 C1            -0.0189     1.5420     0.0105 C.3     
   2 C2             0.0021    -0.0041     0.0020 C.3     
   3 C3             1.3442    -0.3602     0.6025 C.2     
   4 N4             2.1544     0.7123     0.5924 N.am    
   5 C5             1.4890     1.8776    -0.0021 C.3     
   6 C6             1.9726     2.0879    -1.4383 C.3     
   7 C7             1.7603     3.1276     0.8374 C.3     
   8 C8             3.5253     0.7176     1.1090 C.3     
   9 O9             1.6451    -1.4541     1.0311 O.2     
  10 C10           -1.1170    -0.5514     0.8500 C.ar    
  11 N11           -1.2538    -1.8583     0.9595 N.ar    
  12 C12           -2.2203    -2.3821     1.6926 C.ar    
  13 C13           -3.1060    -1.5244     2.3582 C.ar    
  14 C14           -2.9215    -0.1432     2.2123 C.ar    
  15 N15           -1.9243     0.2922     1.4626 N.ar    
  16 C16           -4.1694    -2.0445     3.1640 C.1     
  17 C17           -5.0412    -2.4709     3.8246 C.1     
  18 C18           -6.1046    -2.9909     4.6304 C.ar    
  19 C19           -6.9784    -2.1202     5.2869 C.ar    
  20 C20           -8.0003    -2.6284     6.0613 C.ar    
  21 C21           -8.1614    -3.9969     6.1890 C.ar    
  22 C22           -7.2997    -4.8652     5.5422 C.ar    
  23 C23           -6.2770    -4.3716     4.7594 C.ar    
  24 C24           -0.0997    -0.5252    -1.4083 C.2     
  25 O25           -0.0989    -1.8479    -1.6368 O.3     
  26 O26           -0.1821     0.2476    -2.3335 O.2     
  27 C27           -0.1999    -2.2780    -3.0200 C.3     
  28 C28           -0.1835    -3.7837    -3.0803 C.ar    
  29 C29           -1.3695    -4.4910    -3.0156 C.ar    
  30 C30           -1.3544    -5.8721    -3.0709 C.ar    
  31 C31           -0.1535    -6.5460    -3.1913 C.ar    
  32 C32            1.0324    -5.8387    -3.2569 C.ar    
  33 C33            1.0170    -4.4573    -3.2060 C.ar    
  34 H34           -0.5124     1.9304    -0.8804 H       
  35 H35           -0.4952     1.9207     0.9148 H       
  36 H36            1.7647     1.1939    -2.0263 H       
  37 H37            1.4521     2.9397    -1.8759 H       
  38 H38            3.0456     2.2798    -1.4360 H       
  39 H39            2.8317     3.3271     0.8563 H       
  40 H40            1.2397     3.9793     0.3995 H       
  41 H41            1.4026     2.9669     1.8544 H       
  42 H42            3.7724    -0.2719     1.4936 H       
  43 H43            4.2150     0.9780     0.3061 H       
  44 H44            3.6084     1.4505     1.9114 H       
  45 H45           -2.3261    -3.4535     1.7771 H       
  46 H46           -3.5810     0.5540     2.7076 H       
  47 H47           -6.8536    -1.0520     5.1884 H       
  48 H48           -8.6762    -1.9567     6.5696 H       
  49 H49           -8.9634    -4.3891     6.7967 H       
  50 H50           -7.4312    -5.9321     5.6467 H       
  51 H51           -5.6055    -5.0505     4.2548 H       
  52 H52           -1.1310    -1.9073    -3.4487 H       
  53 H53            0.6435    -1.8825    -3.5860 H       
  54 H54           -2.3077    -3.9645    -2.9216 H       
  55 H55           -2.2809    -6.4247    -3.0197 H       
  56 H56           -0.1417    -7.6251    -3.2338 H       
  57 H57            1.9707    -6.3652    -3.3506 H       
  58 H58            1.9435    -3.9047    -3.2572 H       
@<TRIPOS>BOND
   1    1    2 1
   2    1    5 1
   3    1   34 1
   4    1   35 1
   5    2    3 1
   6    2   10 1
   7    2   24 1
   8    3    4 am
   9    3    9 2
  10    4    5 1
  11    4    8 1
  12    5    6 1
  13    5    7 1
  14    6   36 1
  15    6   37 1
  16    6   38 1
  17    7   39 1
  18    7   40 1
  19    7   41 1
  20    8   42 1
  21    8   43 1
  22    8   44 1
  23   10   11 ar
  24   10   15 ar
  25   11   12 ar
  26   12   13 ar
  27   12   45 1
  28   13   14 ar
  29   13   16 1
  30   14   15 ar
  31   14   46 1
  32   16   17 3
  33   17   18 1
  34   18   19 ar
  35   18   23 ar
  36   19   20 ar
  37   19   47 1
  38   20   21 ar
  39   20   48 1
  40   21   22 ar
  41   21   49 1
  42   22   23 ar
  43   22   50 1
  44   23   51 1
  45   24   25 1
  46   24   26 2
  47   25   27 1
  48   27   28 1
  49   27   52 1
  50   27   53 1
  51   28   29 ar
  52   28   33 ar
  53   29   30 ar
  54   29   54 1
  55   30   31 ar
  56   30   55 1
  57   31   32 ar
  58   31   56 1
  59   32   33 ar
  60   32   57 1
  61   33   58 1

#	End of record

