#	Name: ASD01884450
#	Creating user name:	WinNT
#	Creation time:	15. 06. 2019 19:48

#	Modifying user name:	WinNT
#	Modification time:	15. 06. 2019 19:48

#	Program:	/corina/corina34_cracker 3.40 0067  02.08.2006

@<TRIPOS>MOLECULE
ASD01884450
  48   50    0    0    0
SMALL
NO_CHARGES


@<TRIPOS>ATOM
   1 C1             1.1764     1.4543     0.6700 C.2     
   2 C2             0.9934     0.1063     0.6072 C.2     
   3 C3             2.0783    -0.7188     0.2398 C.2     
   4 C4             3.2888    -0.1569    -0.0458 C.2     
   5 N5             3.4578     1.1872     0.0210 N.am    
   6 C6             2.4388     1.9950     0.3684 C.2     
   7 C7             1.9035    -2.1906     0.1648 C.ar    
   8 C8             4.7667     1.7674    -0.2896 C.3     
   9 O9             2.6116     3.2020     0.4230 O.2     
  10 C10            4.8404     2.0814    -1.7617 C.ar    
  11 C11            4.4390     3.3205    -2.2248 C.ar    
  12 C12            4.5064     3.6091    -3.5748 C.ar    
  13 C13            4.9758     2.6575    -4.4627 C.ar    
  14 C14            5.3774     1.4176    -3.9986 C.ar    
  15 C15            5.3148     1.1322    -2.6477 C.ar    
  16 C16            1.6223    -2.9199     1.3186 C.ar    
  17 C17            2.0145    -2.8454    -1.0604 C.ar    
  18 C18            1.8515    -4.2134    -1.1269 C.ar    
  19 C19            1.5768    -4.9378     0.0249 C.ar    
  20 C20            1.4604    -4.2878     1.2458 C.ar    
  21 Cl21           5.0602     3.0190    -6.1585 Cl      
  22 O22            1.4158    -6.2855    -0.0439 O.3     
  23 C23            1.0176    -6.9534     1.1551 C.3     
  24 C24            0.3022    -8.2580     0.7986 C.3     
  25 C25            2.2543    -7.2644     2.0004 C.3     
  26 C26           -0.9999    -7.9405     0.0606 C.3     
  27 H27            0.3577     2.1028     0.9448 H       
  28 H28            0.0305    -0.3261     0.8359 H       
  29 H29            4.1191    -0.7877    -0.3270 H       
  30 H30            4.9034     2.6837     0.2847 H       
  31 H31            5.5504     1.0557    -0.0301 H       
  32 H32            4.0723     4.0631    -1.5316 H       
  33 H33            4.1924     4.5770    -3.9366 H       
  34 H34            5.7439     0.6744    -4.6912 H       
  35 H35            5.6283     0.1643    -2.2852 H       
  36 H36            1.5317    -2.4147     2.2688 H       
  37 H37            2.2275    -2.2822    -1.9569 H       
  38 H38            1.9374    -4.7214    -2.0761 H       
  39 H39            1.2466    -4.8540     2.1403 H       
  40 H40            0.3424    -6.3117     1.7212 H       
  41 H41            0.9451    -8.8616     0.1579 H       
  42 H42            0.0773    -8.8101     1.7111 H       
  43 H43            1.9506    -7.7738     2.9150 H       
  44 H44            2.9295    -7.9060     1.4343 H       
  45 H45            2.7640    -6.3350     2.2544 H       
  46 H46           -1.5095    -8.8699    -0.1934 H       
  47 H47           -1.6427    -7.3369     0.7012 H       
  48 H48           -0.7749    -7.3884    -0.8520 H       
@<TRIPOS>BOND
   1    1    2 2
   2    1    6 1
   3    1   27 1
   4    2    3 1
   5    2   28 1
   6    3    4 2
   7    3    7 1
   8    4    5 1
   9    4   29 1
  10    5    6 am
  11    5    8 1
  12    6    9 2
  13    7   16 ar
  14    7   17 ar
  15    8   10 1
  16    8   30 1
  17    8   31 1
  18   10   11 ar
  19   10   15 ar
  20   11   12 ar
  21   11   32 1
  22   12   13 ar
  23   12   33 1
  24   13   14 ar
  25   13   21 1
  26   14   15 ar
  27   14   34 1
  28   15   35 1
  29   16   20 ar
  30   16   36 1
  31   17   18 ar
  32   17   37 1
  33   18   19 ar
  34   18   38 1
  35   19   20 ar
  36   19   22 1
  37   20   39 1
  38   22   23 1
  39   23   24 1
  40   23   25 1
  41   23   40 1
  42   24   26 1
  43   24   41 1
  44   24   42 1
  45   25   43 1
  46   25   44 1
  47   25   45 1
  48   26   46 1
  49   26   47 1
  50   26   48 1

#	End of record

