#	Name: ASD03731646
#	Creating user name:	WinNT
#	Creation time:	15. 06. 2019 20:46

#	Modifying user name:	WinNT
#	Modification time:	15. 06. 2019 20:46

#	Program:	/corina/corina34_cracker 3.40 0067  02.08.2006

@<TRIPOS>MOLECULE
ASD03731646
  33   34    0    0    0
SMALL
NO_CHARGES


@<TRIPOS>ATOM
   1 C1            -0.1362     1.4672     0.0333 C.2     
   2 C2            -0.0851    -0.0063     0.0191 C.ar    
   3 C3             1.1401    -0.6648    -0.1384 C.ar    
   4 C4             1.1828    -2.0445    -0.1511 C.ar    
   5 C5             0.0129    -2.7784    -0.0078 C.ar    
   6 C6            -1.2079    -2.1271     0.1491 C.ar    
   7 C7            -1.2595    -0.7502     0.1687 C.ar    
   8 O8             0.8869     2.1123    -0.0920 O.2     
   9 N9            -1.3177     2.0991     0.1795 N.am    
  10 S10           -1.3751     3.7540     0.1954 S.o2    
  11 O11           -2.7502     4.0551     0.3892 O.2     
  12 O12           -0.4002     4.1293     1.1587 O.2     
  13 C13           -0.8453     4.2413    -1.4696 C.3     
  14 O14            0.0593    -4.1349    -0.0213 O.3     
  15 C15           -0.1522    -4.7690    -1.2049 C.ar    
  16 C16           -0.0462    -6.1525    -1.2823 C.ar    
  17 C17           -0.2621    -6.7941    -2.4882 C.ar    
  18 C18           -0.5825    -6.0596    -3.6154 C.ar    
  19 C19           -0.6883    -4.6834    -3.5400 C.ar    
  20 C20           -0.4798    -4.0372    -2.3361 C.ar    
  21 F21            0.2677    -6.8696    -0.1812 F       
  22 F22           -2.3430    -2.8465     0.2880 F       
  23 F23            2.2788     0.0487    -0.2782 F       
  24 H24            2.1274    -2.5537    -0.2729 H       
  25 H25           -2.2064    -0.2463     0.2953 H       
  26 H26           -2.1343     1.5845     0.2754 H       
  27 H27           -1.5275     3.8176    -2.2066 H       
  28 H28           -0.8533     5.3284    -1.5499 H       
  29 H29            0.1634     3.8709    -1.6529 H       
  30 H30           -0.1800    -7.8692    -2.5499 H       
  31 H31           -0.7501    -6.5622    -4.5565 H       
  32 H32           -0.9387    -4.1127    -4.4220 H       
  33 H33           -0.5674    -2.9623    -2.2776 H       
@<TRIPOS>BOND
   1    1    2 1
   2    1    8 2
   3    1    9 am
   4    2    3 ar
   5    2    7 ar
   6    3    4 ar
   7    3   23 1
   8    4    5 ar
   9    4   24 1
  10    5    6 ar
  11    5   14 1
  12    6    7 ar
  13    6   22 1
  14    7   25 1
  15    9   10 am
  16    9   26 1
  17   10   11 2
  18   10   12 2
  19   10   13 1
  20   13   27 1
  21   13   28 1
  22   13   29 1
  23   14   15 1
  24   15   16 ar
  25   15   20 ar
  26   16   17 ar
  27   16   21 1
  28   17   18 ar
  29   17   30 1
  30   18   19 ar
  31   18   31 1
  32   19   20 ar
  33   19   32 1
  34   20   33 1

#	End of record

