#	Name: ASD01911238
#	Creating user name:	WinNT
#	Creation time:	15. 06. 2019 19:57

#	Modifying user name:	WinNT
#	Modification time:	15. 06. 2019 19:57

#	Program:	/corina/corina34_cracker 3.40 0067  02.08.2006

@<TRIPOS>MOLECULE
ASD01911238
  43   46    0    0    0
SMALL
NO_CHARGES


@<TRIPOS>ATOM
   1 C1            -0.2884     0.6882     0.1937 C.3     
   2 C2             0.4488    -0.6347     0.4244 C.3     
   3 N3             1.2301    -0.9565    -0.7775 N.am    
   4 C4             2.1653     0.0479    -1.3022 C.3     
   5 C5             1.4088     1.3631    -1.5136 C.3     
   6 C6             0.7205     1.7667    -0.2076 C.3     
   7 C7             1.0919    -2.1506    -1.3870 C.2     
   8 O8             1.6777    -2.3728    -2.4255 O.2     
   9 C9             0.2094    -3.2097    -0.7782 C.3     
  10 C10            0.1582    -4.5124    -1.5937 C.3     
  11 C11            0.1969    -5.2618    -0.2514 C.3     
  12 C12            0.8984    -4.0231     0.3302 C.3     
  13 C13            2.7312    -0.4262    -2.6159 C.2     
  14 N14            3.9541    -0.8430    -2.8312 N.2     
  15 C15            4.0032    -1.1619    -4.1442 C.2     
  16 N16            2.8193    -0.9225    -4.6442 N.2     
  17 O17            2.0779    -0.5059    -3.7794 O.3     
  18 C18            5.1815    -1.6852    -4.8806 C.ar    
  19 C19            5.0761    -1.9684    -6.2395 C.ar    
  20 C20            6.1837    -2.4561    -6.9133 C.ar    
  21 C21            7.3603    -2.6439    -6.2035 C.ar    
  22 C22            7.3938    -2.3412    -4.8538 C.ar    
  23 N23            6.3272    -1.8737    -4.2392 N.ar    
  24 H24           -1.0219     0.5618    -0.6027 H       
  25 H25           -0.7950     0.9873     1.1113 H       
  26 H26            1.1177    -0.5359     1.2794 H       
  27 H27           -0.2744    -1.4279     0.6134 H       
  28 H28            2.9742     0.2023    -0.5880 H       
  29 H29            2.1103     2.1425    -1.8110 H       
  30 H30            0.6594     1.2304    -2.2938 H       
  31 H31            0.2018     2.7149    -0.3485 H       
  32 H32            1.4680     1.8751     0.5783 H       
  33 H33           -0.7735    -2.8315    -0.4973 H       
  34 H34           -0.7738    -4.6476    -2.1426 H       
  35 H35            1.0416    -4.6762    -2.2109 H       
  36 H36           -0.7894    -5.4454     0.1747 H       
  37 H37            0.8250    -6.1525    -0.2666 H       
  38 H38            1.9842    -4.0532     0.2391 H       
  39 H39            0.5640    -3.7633     1.3346 H       
  40 H40            4.1437    -1.8105    -6.7610 H       
  41 H41            6.1322    -2.6852    -7.9674 H       
  42 H42            8.2417    -3.0230    -6.6994 H       
  43 H43            8.3082    -2.4865    -4.2977 H       
@<TRIPOS>BOND
   1    1    2 1
   2    1    6 1
   3    1   24 1
   4    1   25 1
   5    2    3 1
   6    2   26 1
   7    2   27 1
   8    3    4 1
   9    3    7 am
  10    4    5 1
  11    4   13 1
  12    4   28 1
  13    5    6 1
  14    5   29 1
  15    5   30 1
  16    6   31 1
  17    6   32 1
  18    7    8 2
  19    7    9 1
  20    9   10 1
  21    9   12 1
  22    9   33 1
  23   10   11 1
  24   10   34 1
  25   10   35 1
  26   11   12 1
  27   11   36 1
  28   11   37 1
  29   12   38 1
  30   12   39 1
  31   13   14 2
  32   13   17 1
  33   14   15 1
  34   15   16 2
  35   15   18 1
  36   16   17 1
  37   18   19 ar
  38   18   23 ar
  39   19   20 ar
  40   19   40 1
  41   20   21 ar
  42   20   41 1
  43   21   22 ar
  44   21   42 1
  45   22   23 ar
  46   22   43 1

#	End of record

