#	Name: ASD01917251
#	Creating user name:	WinNT
#	Creation time:	15. 06. 2019 20:08

#	Modifying user name:	WinNT
#	Modification time:	15. 06. 2019 20:08

#	Program:	/corina/corina34_cracker 3.40 0067  02.08.2006

@<TRIPOS>MOLECULE
ASD01917251
  40   43    0    0    0
SMALL
NO_CHARGES


@<TRIPOS>ATOM
   1 C1             0.1506     0.6910    -0.4914 C.ar    
   2 C2             0.3177    -0.6681    -0.3019 C.ar    
   3 C3             1.5817    -1.1862    -0.0908 C.ar    
   4 C4             2.6787    -0.3453    -0.0695 C.ar    
   5 C5             2.5117     1.0136    -0.2599 C.ar    
   6 C6             1.2475     1.5319    -0.4697 C.ar    
   7 C7             3.7076     1.9304    -0.2362 C.3     
   8 O8             4.2399     2.0531    -1.5567 O.3     
   9 C9             5.3302     2.8512    -1.7112 C.2     
  10 N10            5.9352     3.5180    -0.7499 N.2     
  11 N11            6.9993     4.2213    -1.2995 N.pl3   
  12 C12            7.0314     3.9445    -2.6480 C.2     
  13 C13            5.9991     3.0951    -2.9187 C.2     
  14 C14            7.9646     5.1267    -0.6738 C.3     
  15 C15            9.2816     5.0724    -1.4479 C.3     
  16 N16            9.0881     5.1625    -2.8908 N.am    
  17 C17            8.0715     4.5215    -3.5157 C.2     
  18 O18            8.0204     4.4281    -4.7275 O.2     
  19 C19            9.9760     5.9319    -3.6496 C.ar    
  20 C20            9.5429     7.0978    -4.2770 C.ar    
  21 C21           11.3038     5.5479    -3.7840 C.ar    
  22 N22           12.1436     6.2710    -4.4976 N.ar    
  23 C23           11.7639     7.3766    -5.1077 C.ar    
  24 C24           10.4594     7.8261    -5.0170 C.ar    
  25 H25           -0.8365     1.0952    -0.6609 H       
  26 H26           -0.5394    -1.3250    -0.3186 H       
  27 H27            1.7122    -2.2479     0.0580 H       
  28 H28            3.6662    -0.7500     0.0962 H       
  29 H29            1.1171     2.5936    -0.6188 H       
  30 H30            3.4051     2.9128     0.1263 H       
  31 H31            4.4689     1.5174     0.4255 H       
  32 H32            5.7402     2.6909    -3.8862 H       
  33 H33            7.5738     6.1441    -0.6914 H       
  34 H34            8.1359     4.8196     0.3579 H       
  35 H35            9.9143     5.8991    -1.1250 H       
  36 H36            9.7868     4.1343    -1.2181 H       
  37 H37            8.5176     7.4255    -4.1888 H       
  38 H38           11.6518     4.6481    -3.2987 H       
  39 H39           12.4829     7.9412    -5.6828 H       
  40 H40           10.1579     8.7327    -5.5205 H       
@<TRIPOS>BOND
   1    1    2 ar
   2    1    6 ar
   3    1   25 1
   4    2    3 ar
   5    2   26 1
   6    3    4 ar
   7    3   27 1
   8    4    5 ar
   9    4   28 1
  10    5    6 ar
  11    5    7 1
  12    6   29 1
  13    7    8 1
  14    7   30 1
  15    7   31 1
  16    8    9 1
  17    9   10 2
  18    9   13 1
  19   10   11 1
  20   11   12 1
  21   11   14 1
  22   12   13 2
  23   12   17 1
  24   13   32 1
  25   14   15 1
  26   14   33 1
  27   14   34 1
  28   15   16 1
  29   15   35 1
  30   15   36 1
  31   16   17 am
  32   16   19 1
  33   17   18 2
  34   19   20 ar
  35   19   21 ar
  36   20   24 ar
  37   20   37 1
  38   21   22 ar
  39   21   38 1
  40   22   23 ar
  41   23   24 ar
  42   23   39 1
  43   24   40 1

#	End of record

