#	Name: ASD00170805
#	Creating user name:	WinNT
#	Creation time:	15. 06. 2019 18:32

#	Modifying user name:	WinNT
#	Modification time:	15. 06. 2019 18:32

#	Program:	/corina/corina34_cracker 3.40 0067  02.08.2006

@<TRIPOS>MOLECULE
ASD00170805
  38   41    0    0    0
SMALL
NO_CHARGES


@<TRIPOS>ATOM
   1 C1             0.6446     0.3538    -1.2643 C.2     
   2 N2             0.0441    -0.0267    -0.1223 N.am    
   3 C3             0.7063     0.4402     0.9516 C.2     
   4 C4             1.8742     1.2158     0.4842 C.ar    
   5 C5             2.8905     1.9122     1.1184 C.ar    
   6 C6             3.8618     2.5502     0.3629 C.ar    
   7 C7             3.8234     2.4964    -1.0179 C.ar    
   8 C8             2.8130     1.8035    -1.6663 C.ar    
   9 C9             1.8351     1.1608    -0.9242 C.ar    
  10 O10            0.2737     0.0761    -2.3869 O.2     
  11 O11            0.3960     0.2557     2.1111 O.2     
  12 C12           -1.1077    -0.7996    -0.0601 C.2     
  13 C13           -1.1313    -2.1712    -0.1128 C.2     
  14 C14           -2.4706    -2.7119    -0.0257 C.2     
  15 C15           -3.4040    -1.7769     0.0871 C.2     
  16 S16           -2.6860    -0.1761     0.0994 S.3     
  17 C17           -2.7737    -4.1877    -0.0598 C.3     
  18 C18            0.0705    -2.9987    -0.2438 C.2     
  19 C19            0.8296    -3.3958     0.9612 C.ar    
  20 C20            2.0396    -4.0806     0.8332 C.ar    
  21 C21            2.7434    -4.4480     1.9607 C.ar    
  22 C22            2.2521    -4.1390     3.2184 C.ar    
  23 C23            1.0522    -3.4598     3.3517 C.ar    
  24 C24            0.3422    -3.0825     2.2315 C.ar    
  25 O25            0.4442    -3.3592    -1.3449 O.2     
  26 Cl26           3.1434    -4.6053     4.6332 Cl      
  27 Br27          -5.2582    -2.1225     0.2236 Br      
  28 H28            2.9254     1.9581     2.1969 H       
  29 H29            4.6540     3.0936     0.8564 H       
  30 H30            4.5858     2.9979    -1.5955 H       
  31 H31            2.7878     1.7651    -2.7453 H       
  32 H32           -2.6796    -4.6013     0.9443 H       
  33 H33           -3.7901    -4.3415    -0.4223 H       
  34 H34           -2.0708    -4.6877    -0.7261 H       
  35 H35            2.4235    -4.3224    -0.1469 H       
  36 H36            3.6793    -4.9780     1.8629 H       
  37 H37            0.6740    -3.2219     4.3350 H       
  38 H38           -0.5912    -2.5494     2.3366 H       
@<TRIPOS>BOND
   1    1    2 am
   2    1    9 1
   3    1   10 2
   4    2    3 am
   5    2   12 1
   6    3    4 1
   7    3   11 2
   8    4    5 ar
   9    4    9 ar
  10    5    6 ar
  11    5   28 1
  12    6    7 ar
  13    6   29 1
  14    7    8 ar
  15    7   30 1
  16    8    9 ar
  17    8   31 1
  18   12   13 2
  19   12   16 1
  20   13   14 1
  21   13   18 1
  22   14   15 2
  23   14   17 1
  24   15   16 1
  25   15   27 1
  26   17   32 1
  27   17   33 1
  28   17   34 1
  29   18   19 1
  30   18   25 2
  31   19   20 ar
  32   19   24 ar
  33   20   21 ar
  34   20   35 1
  35   21   22 ar
  36   21   36 1
  37   22   23 ar
  38   22   26 1
  39   23   24 ar
  40   23   37 1
  41   24   38 1

#	End of record

