#	Name: ASD01915951
#	Creating user name:	WinNT
#	Creation time:	15. 06. 2019 20:06

#	Modifying user name:	WinNT
#	Modification time:	15. 06. 2019 20:06

#	Program:	/corina/corina34_cracker 3.40 0067  02.08.2006

@<TRIPOS>MOLECULE
ASD01915951
  42   45    0    0    0
SMALL
NO_CHARGES


@<TRIPOS>ATOM
   1 C1            -0.0020     1.4615     0.2213 C.2     
   2 C2             0.0654     0.1133    -0.0244 C.2     
   3 C3            -1.2091    -0.6737    -0.2832 C.3     
   4 C4            -2.3597    -0.0118     0.4724 C.3     
   5 N5            -2.4033     1.4321     0.2716 N.am    
   6 C6            -1.2782     2.1841     0.2657 C.2     
   7 O7            -1.3227     3.3998     0.2961 O.2     
   8 S8             1.6229     2.0666     0.4611 S.3     
   9 C9             2.2500     0.4923     0.2252 C.2     
  10 N10            1.2910    -0.3463    -0.0066 N.2     
  11 O11            4.2828     0.2602    -1.0249 O.3     
  12 C12            5.6045    -0.0296    -1.1513 C.ar    
  13 C13            6.2232     0.0732    -2.3887 C.ar    
  14 C14            6.3387    -0.4233    -0.0419 C.ar    
  15 C15            7.6823    -0.7168    -0.1729 C.ar    
  16 C16            8.2954    -0.6182    -1.4083 C.ar    
  17 C17            7.5670    -0.2215    -2.5145 C.ar    
  18 C18            3.7125     0.1324     0.2791 C.3     
  19 C19           -3.6354     2.0535     0.0810 C.ar    
  20 N20           -3.6791     3.3104    -0.3317 N.ar    
  21 C21           -4.8247     3.9358    -0.5251 C.ar    
  22 C22           -6.0274     3.2955    -0.3018 C.ar    
  23 C23           -6.0251     1.9765     0.1317 C.ar    
  24 C24           -4.8084     1.3458     0.3205 C.ar    
  25 C25           -7.3189     1.2466     0.3854 C.3     
  26 H26           -1.4267    -0.6754    -1.3513 H       
  27 H27           -1.0834    -1.6980     0.0674 H       
  28 H28           -3.3003    -0.4437     0.1309 H       
  29 H29           -2.2461    -0.2163     1.5370 H       
  30 H30            5.6546     0.3830    -3.2531 H       
  31 H31            5.8604    -0.4998     0.9234 H       
  32 H32            8.2542    -1.0233     0.6904 H       
  33 H33            9.3459    -0.8478    -1.5086 H       
  34 H34            8.0481    -0.1455    -3.4784 H       
  35 H35            4.2265     0.8029     0.9678 H       
  36 H36            3.8211    -0.8959     0.6240 H       
  37 H37           -4.8216     4.9619    -0.8621 H       
  38 H38           -6.9603     3.8154    -0.4624 H       
  39 H39           -4.7698     0.3201     0.6567 H       
  40 H40           -7.6413     0.7497    -0.5296 H       
  41 H41           -7.1694     0.5037     1.1690 H       
  42 H42           -8.0819     1.9584     0.7005 H       
@<TRIPOS>BOND
   1    1    2 2
   2    1    8 1
   3    1    6 1
   4    2    3 1
   5    2   10 1
   6    3    4 1
   7    3   26 1
   8    3   27 1
   9    4    5 1
  10    4   28 1
  11    4   29 1
  12    5    6 am
  13    5   19 1
  14    6    7 2
  15    8    9 1
  16    9   10 2
  17    9   18 1
  18   11   12 1
  19   11   18 1
  20   12   13 ar
  21   12   14 ar
  22   13   17 ar
  23   13   30 1
  24   14   15 ar
  25   14   31 1
  26   15   16 ar
  27   15   32 1
  28   16   17 ar
  29   16   33 1
  30   17   34 1
  31   18   35 1
  32   18   36 1
  33   19   20 ar
  34   19   24 ar
  35   20   21 ar
  36   21   22 ar
  37   21   37 1
  38   22   23 ar
  39   22   38 1
  40   23   24 ar
  41   23   25 1
  42   24   39 1
  43   25   40 1
  44   25   41 1
  45   25   42 1

#	End of record

