#	Name: ASD02030632
#	Creating user name:	WinNT
#	Creation time:	15. 06. 2019 20:15

#	Modifying user name:	WinNT
#	Modification time:	15. 06. 2019 20:15

#	Program:	/corina/corina34_cracker 3.40 0067  02.08.2006

@<TRIPOS>MOLECULE
ASD02030632
  61   64    0    0    0
SMALL
NO_CHARGES


@<TRIPOS>ATOM
   1 C1             0.1608     1.1549    -0.0913 C.ar    
   2 C2             0.0202    -0.2165    -0.0953 C.ar    
   3 C3             1.1478    -1.0222    -0.1643 C.ar    
   4 C4             2.4029    -0.4418    -0.2225 C.ar    
   5 C5             2.5427     0.9400    -0.2118 C.ar    
   6 C6             1.4205     1.7363    -0.1553 C.ar    
   7 C7             1.4988     3.2424    -0.1740 C.3     
   8 C8             3.9404     1.4998    -0.2487 C.3     
   9 C9             3.9321     2.9531    -0.7198 C.3     
  10 N10            2.8875     3.6676     0.0309 N.am    
  11 C11            1.0017     3.7613    -1.5248 C.3     
  12 O12            1.7425     3.1386    -2.5762 O.3     
  13 C13            1.4229     3.4920    -3.8498 C.ar    
  14 C14            3.1952     4.6729     0.8742 C.2     
  15 O15            4.3586     4.9566     1.0829 O.2     
  16 C16            2.1176     5.4307     1.5455 C.ar    
  17 C17            0.7718     4.2112    -6.4425 C.ar    
  18 C18            0.0963     4.7821    -5.3741 C.ar    
  19 C19            0.4210     4.4231    -4.0804 C.ar    
  20 C20            2.1026     2.9258    -4.9180 C.ar    
  21 C21            1.7779     3.2848    -6.2117 C.ar    
  22 C22            2.2972     5.8993     2.8474 C.ar    
  23 C23            0.9187     5.6851     0.8772 C.ar    
  24 C24           -0.0835     6.3925     1.5080 C.ar    
  25 C25            0.0964     6.8505     2.8010 C.ar    
  26 C26            1.2856     6.6070     3.4689 C.ar    
  27 O27            0.4522     4.5647    -7.7161 O.3     
  28 C28            1.1885     3.9371    -8.7678 C.3     
  29 O29            1.0203    -2.3751    -0.1741 O.3     
  30 C30           -0.2933    -2.9044     0.0165 C.3     
  31 C31           -0.9425    -3.1603    -1.3450 C.3     
  32 C32           -0.2056    -4.2188     0.7948 C.3     
  33 F33            1.4567     7.0620     4.7294 F       
  34 H34           -0.7166     1.7828    -0.0424 H       
  35 H35           -0.9626    -0.6614    -0.0448 H       
  36 H36            3.2808    -1.0686    -0.2763 H       
  37 H37            0.8741     3.6480     0.6218 H       
  38 H38            4.3733     1.4493     0.7503 H       
  39 H39            4.5469     0.9050    -0.9318 H       
  40 H40            4.9030     3.4090    -0.5261 H       
  41 H41            3.7113     2.9937    -1.7865 H       
  42 H42           -0.0567     3.5258    -1.6372 H       
  43 H43            1.1407     4.8413    -1.5726 H       
  44 H44           -0.6871     5.5035    -5.5539 H       
  45 H45           -0.1055     4.8670    -3.2485 H       
  46 H46            2.8860     2.2044    -4.7382 H       
  47 H47            2.3039     2.8403    -7.0436 H       
  48 H48            3.2240     5.7093     3.3682 H       
  49 H49            0.7762     5.3288    -0.1323 H       
  50 H50           -1.0110     6.5897     0.9910 H       
  51 H51           -0.6916     7.4038     3.2901 H       
  52 H52            2.2481     4.1674    -8.6571 H       
  53 H53            1.0442     2.8578    -8.7184 H       
  54 H54            0.8348     4.3073    -9.7300 H       
  55 H55           -0.8952    -2.1895     0.5775 H       
  56 H56           -0.3406    -3.8752    -1.9060 H       
  57 H57           -1.9445    -3.5640    -1.1996 H       
  58 H58           -1.0050    -2.2239    -1.8995 H       
  59 H59            0.2570    -4.0365     1.7648 H       
  60 H60           -1.2076    -4.6225     0.9402 H       
  61 H61            0.3963    -4.9337     0.2338 H       
@<TRIPOS>BOND
   1    1    2 ar
   2    1    6 ar
   3    1   34 1
   4    2    3 ar
   5    2   35 1
   6    3    4 ar
   7    3   29 1
   8    4    5 ar
   9    4   36 1
  10    5    6 ar
  11    5    8 1
  12    6    7 1
  13    7   10 1
  14    7   11 1
  15    7   37 1
  16    8    9 1
  17    8   38 1
  18    8   39 1
  19    9   10 1
  20    9   40 1
  21    9   41 1
  22   10   14 am
  23   11   12 1
  24   11   42 1
  25   11   43 1
  26   12   13 1
  27   13   20 ar
  28   13   19 ar
  29   14   15 2
  30   14   16 1
  31   16   23 ar
  32   16   22 ar
  33   17   18 ar
  34   17   21 ar
  35   17   27 1
  36   18   19 ar
  37   18   44 1
  38   19   45 1
  39   20   21 ar
  40   20   46 1
  41   21   47 1
  42   22   26 ar
  43   22   48 1
  44   23   24 ar
  45   23   49 1
  46   24   25 ar
  47   24   50 1
  48   25   26 ar
  49   25   51 1
  50   26   33 1
  51   27   28 1
  52   28   52 1
  53   28   53 1
  54   28   54 1
  55   29   30 1
  56   30   31 1
  57   30   32 1
  58   30   55 1
  59   31   56 1
  60   31   57 1
  61   31   58 1
  62   32   59 1
  63   32   60 1
  64   32   61 1

#	End of record

