#	Name: ASD08170419
#	Creating user name:	WinNT
#	Creation time:	15. 06. 2019 21:17

#	Modifying user name:	WinNT
#	Modification time:	15. 06. 2019 21:17

#	Program:	/corina/corina34_cracker 3.40 0067  02.08.2006

@<TRIPOS>MOLECULE
ASD08170419
  57   60    0    0    0
SMALL
NO_CHARGES


@<TRIPOS>ATOM
   1 N1            -1.4883     2.2833     0.8881 N.2     
   2 C2            -1.6799     0.9988     0.9147 C.2     
   3 S3            -0.1621     0.2147     0.7876 S.3     
   4 C4             0.6235     1.7920     0.7066 C.2     
   5 N5            -0.3003     2.6965     0.7807 N.2     
   6 C6             7.0361     2.8414     5.0075 C.2     
   7 S7             7.1178     4.2928     6.0066 S.3     
   8 C8             7.7070     3.3426     7.3046 C.2     
   9 N9             7.7883     2.1069     6.9125 N.2     
  10 N10            7.4378     1.8435     5.7286 N.2     
  11 C11            2.1038     2.0420     0.5753 C.3     
  12 C12            2.7304     2.1378     1.9678 C.3     
  13 S13            4.5122     2.4387     1.8098 S.3     
  14 C14            5.0669     2.5202     3.5350 C.3     
  15 C15            6.5753     2.7737     3.5743 C.3     
  16 N16            8.0429     3.8158     8.5684 N.am    
  17 C17            8.4974     2.9634     9.5083 C.2     
  18 O18            8.6137     1.7808     9.2512 O.2     
  19 N19            8.8230     3.4220    10.7331 N.am    
  20 C20            9.2041     2.5253    11.7375 C.ar    
  21 C21            9.9459     1.3959    11.4171 C.ar    
  22 C22           10.3204     0.5127    12.4107 C.ar    
  23 C23            9.9571     0.7518    13.7233 C.ar    
  24 C24            9.2185     1.8756    14.0456 C.ar    
  25 C25            8.8461     2.7658    13.0575 C.ar    
  26 N26           -2.9126     0.3652     1.0281 N.am    
  27 C27           -4.0405     1.0972     1.1213 C.2     
  28 O28           -3.9801     2.3114     1.1063 O.2     
  29 N29           -5.2352     0.4832     1.2312 N.am    
  30 C30           -6.3959     1.2404     1.4248 C.ar    
  31 C31           -6.5264     2.4817     0.8161 C.ar    
  32 C32           -7.6733     3.2267     1.0092 C.ar    
  33 C33           -8.6907     2.7380     1.8081 C.ar    
  34 C34           -8.5637     1.5023     2.4157 C.ar    
  35 C35           -7.4220     0.7497     2.2215 C.ar    
  36 H36            2.5637     1.2206     0.0257 H       
  37 H37            2.2683     2.9759     0.0378 H       
  38 H38            2.2705     2.9592     2.5174 H       
  39 H39            2.5659     1.2039     2.5053 H       
  40 H40            4.5486     3.3320     4.0453 H       
  41 H41            4.8440     1.5767     4.0332 H       
  42 H42            6.7982     3.7172     3.0760 H       
  43 H43            7.0936     1.9619     3.0639 H       
  44 H44            7.9501     4.7593     8.7735 H       
  45 H45            8.7931     4.3737    10.9184 H       
  46 H46           10.2293     1.2081    10.3920 H       
  47 H47           10.8973    -0.3659    12.1622 H       
  48 H48           10.2506     0.0594    14.4984 H       
  49 H49            8.9363     2.0596    15.0717 H       
  50 H50            8.2731     3.6456    13.3105 H       
  51 H51           -2.9608    -0.6035     1.0400 H       
  52 H52           -5.2905    -0.4837     1.1761 H       
  53 H53           -5.7319     2.8643     0.1926 H       
  54 H54           -7.7754     4.1922     0.5361 H       
  55 H55           -9.5862     3.3228     1.9581 H       
  56 H56           -9.3601     1.1233     3.0390 H       
  57 H57           -7.3253    -0.2173     2.6927 H       
@<TRIPOS>BOND
   1    1    2 2
   2    1    5 1
   3    2    3 1
   4    2   26 1
   5    3    4 1
   6    4    5 2
   7    4   11 1
   8    6    7 1
   9    6   15 1
  10    6   10 2
  11    7    8 1
  12    8    9 2
  13    8   16 1
  14    9   10 1
  15   11   12 1
  16   11   36 1
  17   11   37 1
  18   12   13 1
  19   12   38 1
  20   12   39 1
  21   13   14 1
  22   14   15 1
  23   14   40 1
  24   14   41 1
  25   15   42 1
  26   15   43 1
  27   16   17 am
  28   16   44 1
  29   17   18 2
  30   17   19 am
  31   19   20 1
  32   19   45 1
  33   20   21 ar
  34   20   25 ar
  35   21   22 ar
  36   21   46 1
  37   22   23 ar
  38   22   47 1
  39   23   24 ar
  40   23   48 1
  41   24   25 ar
  42   24   49 1
  43   25   50 1
  44   26   27 am
  45   26   51 1
  46   27   28 2
  47   27   29 am
  48   29   30 1
  49   29   52 1
  50   30   31 ar
  51   30   35 ar
  52   31   32 ar
  53   31   53 1
  54   32   33 ar
  55   32   54 1
  56   33   34 ar
  57   33   55 1
  58   34   35 ar
  59   34   56 1
  60   35   57 1

#	End of record

