#	Name: ASD01910634
#	Creating user name:	WinNT
#	Creation time:	15. 06. 2019 19:56

#	Modifying user name:	WinNT
#	Modification time:	15. 06. 2019 19:56

#	Program:	/corina/corina34_cracker 3.40 0067  02.08.2006

@<TRIPOS>MOLECULE
ASD01910634
  43   46    0    0    0
SMALL
NO_CHARGES


@<TRIPOS>ATOM
   1 C1             1.8388    -0.3345    -0.5117 C.ar    
   2 C2             2.1727    -1.6613    -0.7220 C.ar    
   3 C3             3.5033    -2.0071    -0.9073 C.ar    
   4 C4             4.4575    -1.0041    -0.8749 C.ar    
   5 C5             4.0498     0.3116    -0.6583 C.ar    
   6 N6             2.7654     0.5999    -0.4854 N.ar    
   7 C7             5.0567     1.3952    -0.6208 C.2     
   8 N8             4.8250     2.6804    -0.4267 N.2     
   9 C9             6.0275     3.2743    -0.4744 C.2     
  10 N10            6.9153     2.3487    -0.6898 N.2     
  11 O11            6.3833     1.2618    -0.7717 O.3     
  12 C12            6.2998     4.7472    -0.3089 C.3     
  13 C13            7.2267     4.9637     0.8895 C.3     
  14 C14            7.4775     6.4616     1.0785 C.3     
  15 C15            8.1639     7.0220    -0.1712 C.3     
  16 N16            7.3485     6.6904    -1.3475 N.am    
  17 C17            6.9729     5.2881    -1.5742 C.3     
  18 C18            6.9525     7.6541    -2.2024 C.2     
  19 C19            6.2392     7.2927    -3.4428 C.ar    
  20 O20            7.1829     8.8213    -1.9516 O.2     
  21 C21            6.7375     6.2828    -4.2694 C.ar    
  22 C22            6.0681     5.9482    -5.4264 C.ar    
  23 C23            4.9005     6.6109    -5.7737 C.ar    
  24 C24            4.3980     7.6150    -4.9594 C.ar    
  25 C25            5.0582     7.9563    -3.7926 C.ar    
  26 F26            4.2502     6.2775    -6.9099 F       
  27 F27            4.5694     8.9338    -2.9984 F       
  28 F28            3.2603     8.2571    -5.3037 F       
  29 H29            0.8033    -0.0617    -0.3716 H       
  30 H30            1.4046    -2.4203    -0.7413 H       
  31 H31            3.7887    -3.0355    -1.0727 H       
  32 H32            5.5026    -1.2377    -1.0150 H       
  33 H33            5.3605     5.2743    -0.1422 H       
  34 H34            6.7606     4.5575     1.7872 H       
  35 H35            8.1749     4.4564     0.7116 H       
  36 H36            6.5273     6.9731     1.2319 H       
  37 H37            8.1188     6.6165     1.9462 H       
  38 H38            8.2554     8.1046    -0.0834 H       
  39 H39            9.1534     6.5768    -0.2752 H       
  40 H40            7.8653     4.7016    -1.7927 H       
  41 H41            6.2785     5.2267    -2.4122 H       
  42 H42            7.6467     5.7650    -4.0020 H       
  43 H43            6.4542     5.1675    -6.0651 H       
@<TRIPOS>BOND
   1    1    2 ar
   2    1    6 ar
   3    1   29 1
   4    2    3 ar
   5    2   30 1
   6    3    4 ar
   7    3   31 1
   8    4    5 ar
   9    4   32 1
  10    5    6 ar
  11    5    7 1
  12    7    8 2
  13    7   11 1
  14    8    9 1
  15    9   10 2
  16    9   12 1
  17   10   11 1
  18   12   13 1
  19   12   17 1
  20   12   33 1
  21   13   14 1
  22   13   34 1
  23   13   35 1
  24   14   15 1
  25   14   36 1
  26   14   37 1
  27   15   16 1
  28   15   38 1
  29   15   39 1
  30   16   17 1
  31   16   18 am
  32   17   40 1
  33   17   41 1
  34   18   19 1
  35   18   20 2
  36   19   21 ar
  37   19   25 ar
  38   21   22 ar
  39   21   42 1
  40   22   23 ar
  41   22   43 1
  42   23   24 ar
  43   23   26 1
  44   24   25 ar
  45   24   28 1
  46   25   27 1

#	End of record

