#	Name: ASD00360005
#	Creating user name:	WinNT
#	Creation time:	15. 06. 2019 18:35

#	Modifying user name:	WinNT
#	Modification time:	15. 06. 2019 18:35

#	Program:	/corina/corina34_cracker 3.40 0067  02.08.2006

@<TRIPOS>MOLECULE
ASD00360005
  34   34    0    0    0
SMALL
NO_CHARGES


@<TRIPOS>ATOM
   1 C1            -0.0067     1.4946    -0.0766 C.3     
   2 C2             0.0005    -0.0459    -0.1908 C.3     
   3 C3            -1.2260    -0.3625    -1.0757 C.3     
   4 C4            -1.8291     1.0242    -1.3913 C.3     
   5 O5            -0.7287     1.9477    -1.2425 O.3     
   6 C6             1.4240     2.0365    -0.0921 C.3     
   7 C7            -2.3634     1.0590    -2.8246 C.3     
   8 O8            -0.8196    -1.0174    -2.2790 O.3     
   9 O9            -0.1446    -0.6444     1.0987 O.3     
  10 O10           -2.8699     1.3369    -0.4635 O.3     
  11 O11           -3.0249     2.3042    -3.0563 O.3     
  12 O12            1.4013     3.4478     0.1310 O.3     
  13 P13            2.7342     4.3496     0.1788 P.3     
  14 O14            3.6673     3.7977     1.1864 O.2     
  15 O15            3.4402     4.3409    -1.2681 O.3     
  16 O16            2.3460     5.8604     0.5775 O.3     
  17 P17           -4.2469     0.5070    -0.3780 P.3     
  18 O18           -3.9357    -1.0023     0.0881 O.3     
  19 O19           -5.2296     1.2062     0.6886 O.3     
  20 O20           -4.8953     0.4887    -1.7082 O.2     
  21 H21           -0.5194     1.8052     0.8338 H       
  22 H22            0.9168    -0.3890    -0.6712 H       
  23 H23           -1.9430    -0.9754    -0.5295 H       
  24 H24            2.0040     1.5536     0.6943 H       
  25 H25            1.8807     1.8290    -1.0599 H       
  26 H26           -1.5343     0.9523    -3.5241 H       
  27 H27           -3.0685     0.2405    -2.9694 H       
  28 H28           -0.3796    -1.8665    -2.1353 H       
  29 H29            0.5686    -0.4285     1.7150 H       
  30 H30           -3.3896     2.3961    -3.9471 H       
  31 H31            2.8850     4.6899    -1.9788 H       
  32 H32            3.1022     6.4612     0.6254 H       
  33 H33           -3.5095    -1.0667     0.9538 H       
  34 H34           -6.0803     0.7584     0.7920 H       
@<TRIPOS>BOND
   1    1    2 1
   2    1    6 1
   3    1    5 1
   4    1   21 1
   5    2    3 1
   6    2    9 1
   7    2   22 1
   8    3    4 1
   9    3    8 1
  10    3   23 1
  11    4    5 1
  12    4    7 1
  13    4   10 1
  14    6   12 1
  15    6   24 1
  16    6   25 1
  17    7   11 1
  18    7   26 1
  19    7   27 1
  20    8   28 1
  21    9   29 1
  22   10   17 1
  23   11   30 1
  24   12   13 1
  25   13   14 2
  26   13   15 1
  27   13   16 1
  28   15   31 1
  29   16   32 1
  30   17   18 1
  31   17   19 1
  32   17   20 2
  33   18   33 1
  34   19   34 1

#	End of record

