#	Name: ASD04590513
#	Creating user name:	WinNT
#	Creation time:	15. 06. 2019 20:51

#	Modifying user name:	WinNT
#	Modification time:	15. 06. 2019 20:51

#	Program:	/corina/corina34_cracker 3.40 0067  02.08.2006

@<TRIPOS>MOLECULE
ASD04590513
  53   58    0    0    0
SMALL
NO_CHARGES


@<TRIPOS>ATOM
   1 C1            -0.0167     1.3834     0.0096 C.ar    
   2 C2             0.0021    -0.0041     0.0020 C.ar    
   3 C3             2.3948     0.0191    -0.0208 C.ar    
   4 C4             2.3756     1.4249    -0.0130 C.ar    
   5 C5             1.1624     2.0987     0.0022 C.ar    
   6 N6             3.6952    -0.3636    -0.0357 N.2     
   7 C7             4.4665     0.6967    -0.0377 C.2     
   8 N8             3.6970     1.8290    -0.0239 N.pl3   
   9 C9             5.9437     0.6731    -0.0517 C.2     
  10 C10            6.7565    -0.4840    -0.0656 C.2     
  11 C11            8.0503    -0.0800    -0.0755 C.2     
  12 N12            8.0626     1.2789    -0.0682 N.pl3   
  13 N13            6.7358     1.7273    -0.0591 N.2     
  14 N14            6.3042    -1.8135    -0.0686 N.am    
  15 C15            7.1921    -2.8274    -0.0825 C.2     
  16 O16            8.3854    -2.5908    -0.0924 O.2     
  17 C17            1.1863    -0.6848    -0.0130 C.ar    
  18 C18            6.7177    -4.2219    -0.0857 C.2     
  19 C19            7.5020    -5.3378    -0.0991 C.2     
  20 C20           -1.2971    -0.7677     0.0109 C.3     
  21 N21           -1.7331    -1.0083    -1.3711 N.3     
  22 C22           -2.8628    -1.9482    -1.4111 C.3     
  23 C23           -0.6195    -1.4969    -2.1973 C.3     
  24 C24           -1.1017    -1.6771    -3.6392 C.3     
  25 O25           -2.2194    -2.5691    -3.6548 O.3     
  26 C26           -3.3225    -2.1239    -2.8608 C.3     
  27 N27            6.6625    -6.4140    -0.0963 N.pl3   
  28 C28            5.3836    -5.9397    -0.0812 C.2     
  29 N29            5.4217    -4.6262    -0.0698 N.2     
  30 C30            6.6044    -7.7994    -0.1024 C.2     
  31 C31            5.3283    -8.1683    -0.0914 C.2     
  32 N32            4.5428    -7.0298    -0.0785 N.pl3   
  33 H33           -0.9614     1.9069     0.0170 H       
  34 H34            1.1417     3.1785     0.0079 H       
  35 H35            4.0192     2.7439    -0.0222 H       
  36 H36            8.9175    -0.7238    -0.0869 H       
  37 H37            8.8532     1.8409    -0.0726 H       
  38 H38            5.3528    -2.0021    -0.0607 H       
  39 H39            1.1893    -1.7648    -0.0185 H       
  40 H40            8.5816    -5.3647    -0.1103 H       
  41 H41           -1.1543    -1.7218     0.5182 H       
  42 H42           -2.0561    -0.1872     0.5354 H       
  43 H43           -2.5490    -2.9117    -1.0095 H       
  44 H44           -3.6851    -1.5545    -0.8137 H       
  45 H45            0.1957    -0.7737    -2.1739 H       
  46 H46           -0.2699    -2.4532    -1.8083 H       
  47 H47           -1.4011    -0.7113    -4.0462 H       
  48 H48           -0.2955    -2.0932    -4.2433 H       
  49 H49           -4.1224    -2.8632    -2.9020 H       
  50 H50           -3.6865    -1.1711    -3.2452 H       
  51 H51            7.4538    -8.4664    -0.1141 H       
  52 H52            4.9654    -9.1855    -0.0928 H       
  53 H53            3.5732    -7.0041    -0.0682 H       
@<TRIPOS>BOND
   1    1    2 ar
   2    1    5 ar
   3    1   33 1
   4    2   17 ar
   5    2   20 1
   6    3    4 ar
   7    3    6 1
   8    3   17 ar
   9    4    5 ar
  10    4    8 1
  11    5   34 1
  12    6    7 2
  13    7    8 1
  14    7    9 1
  15    8   35 1
  16    9   10 1
  17    9   13 2
  18   10   11 2
  19   10   14 1
  20   11   12 1
  21   11   36 1
  22   12   13 1
  23   12   37 1
  24   14   15 am
  25   14   38 1
  26   15   16 2
  27   15   18 1
  28   17   39 1
  29   18   19 2
  30   18   29 1
  31   19   27 1
  32   19   40 1
  33   20   21 1
  34   20   41 1
  35   20   42 1
  36   21   22 1
  37   21   23 1
  38   22   26 1
  39   22   43 1
  40   22   44 1
  41   23   24 1
  42   23   45 1
  43   23   46 1
  44   24   25 1
  45   24   47 1
  46   24   48 1
  47   25   26 1
  48   26   49 1
  49   26   50 1
  50   27   28 1
  51   27   30 1
  52   28   29 2
  53   28   32 1
  54   30   31 2
  55   30   51 1
  56   31   32 1
  57   31   52 1
  58   32   53 1

#	End of record

