#	Name: ASD03090826
#	Creating user name:	WinNT
#	Creation time:	15. 06. 2019 20:29

#	Modifying user name:	WinNT
#	Modification time:	15. 06. 2019 20:29

#	Program:	/corina/corina34_cracker 3.40 0067  02.08.2006

@<TRIPOS>MOLECULE
ASD03090826
  38   41    0    0    0
SMALL
NO_CHARGES


@<TRIPOS>ATOM
   1 C1            -0.0180     1.4773     0.0804 C.2     
   2 C2             0.0022    -0.0037     0.1004 C.ar    
   3 C3             1.2178    -0.6874     0.1074 C.ar    
   4 C4             1.2301    -2.0670     0.1265 C.ar    
   5 C5             0.0398    -2.7720     0.1388 C.ar    
   6 C6            -1.1692    -2.0995     0.1314 C.ar    
   7 C7            -1.1945    -0.7200     0.1181 C.ar    
   8 O8             1.0296     2.1012     0.0700 O.2     
   9 N9            -1.1827     2.1288     0.0682 N.2     
  10 S10            0.1585     4.5178     0.0393 S.3     
  11 C11           -1.2008     3.4605     0.0502 C.2     
  12 N12           -2.2936     4.2638     0.0361 N.pl3   
  13 C13           -2.0721     5.6058     0.0182 C.2     
  14 C14           -0.8060     6.0042     0.0162 C.2     
  15 C15           -0.2961     7.4222    -0.0019 C.3     
  16 O16           -7.4983     2.4248     0.0725 O.3     
  17 C17           -8.1389     3.6833    -0.2083 C.3     
  18 O18           -7.1895     4.6615     0.2552 O.3     
  19 C19           -5.9682     4.0597     0.1567 C.ar    
  20 C20           -6.1575     2.6839     0.0443 C.ar    
  21 C21           -4.6862     4.5822     0.1539 C.ar    
  22 C22           -3.5920     3.7351     0.0393 C.ar    
  23 C23           -3.7838     2.3649    -0.0724 C.ar    
  24 C24           -5.0632     1.8423    -0.0703 C.ar    
  25 F25           -8.3607     3.8261    -1.5822 F       
  26 F26           -9.3411     3.7915     0.4988 F       
  27 H27            2.1477    -0.1381     0.0975 H       
  28 H28            2.1707    -2.5976     0.1316 H       
  29 H29            0.0544    -3.8518     0.1537 H       
  30 H30           -2.0952    -2.6554     0.1407 H       
  31 H31           -2.1389    -0.1961     0.1170 H       
  32 H32           -2.8878     6.3135     0.0059 H       
  33 H33            0.7939     7.4164     0.0007 H       
  34 H34           -0.6545     7.9258    -0.8997 H       
  35 H35           -0.6587     7.9500     0.8801 H       
  36 H36           -4.5373     5.6484     0.2406 H       
  37 H37           -2.9323     1.7066    -0.1615 H       
  38 H38           -5.2100     0.7759    -0.1571 H       
@<TRIPOS>BOND
   1    1    2 1
   2    1    8 2
   3    1    9 1
   4    2    3 ar
   5    2    7 ar
   6    3    4 ar
   7    3   27 1
   8    4    5 ar
   9    4   28 1
  10    5    6 ar
  11    5   29 1
  12    6    7 ar
  13    6   30 1
  14    7   31 1
  15    9   11 2
  16   10   11 1
  17   10   14 1
  18   11   12 1
  19   12   13 1
  20   12   22 1
  21   13   14 2
  22   13   32 1
  23   14   15 1
  24   15   33 1
  25   15   34 1
  26   15   35 1
  27   16   17 1
  28   16   20 1
  29   17   18 1
  30   17   25 1
  31   17   26 1
  32   18   19 1
  33   19   20 ar
  34   19   21 ar
  35   20   24 ar
  36   21   22 ar
  37   21   36 1
  38   22   23 ar
  39   23   24 ar
  40   23   37 1
  41   24   38 1

#	End of record

