#	Name: ASD01882904
#	Creating user name:	WinNT
#	Creation time:	15. 06. 2019 19:45

#	Modifying user name:	WinNT
#	Modification time:	15. 06. 2019 19:45

#	Program:	/corina/corina34_cracker 3.40 0067  02.08.2006

@<TRIPOS>MOLECULE
ASD01882904
  25   24    0    0    0
SMALL
NO_CHARGES


@<TRIPOS>ATOM
   1 C1            -0.0173     1.4278     0.0099 C.2     
   2 C2             0.0021    -0.0041     0.0020 C.1     
   3 C3             0.0180    -1.1779    -0.0044 C.1     
   4 C4             0.0380    -2.6498    -0.0125 C.3     
   5 C5            -1.3974    -3.1794    -0.0017 C.3     
   6 C6            -1.3798    -4.7034    -0.1358 C.3     
   7 O7             1.0268     2.0497     0.0033 O.2     
   8 O8            -1.1938     2.0858     0.0190 O.3     
   9 C9            -2.0744    -2.7910     1.3143 C.3     
  10 C10           -1.1375     3.5367     0.0267 C.3     
  11 C11           -2.5591     4.1022     0.0365 C.3     
  12 H12            0.5481    -3.0013    -0.9093 H       
  13 H13            0.5651    -3.0109     0.8705 H       
  14 H14           -1.9503    -2.7476    -0.8359 H       
  15 H15           -0.8269    -5.1351     0.6985 H       
  16 H16           -2.4024    -5.0807    -0.1280 H       
  17 H17           -0.8975    -4.9801    -1.0733 H       
  18 H18           -2.0870    -1.7052     1.4098 H       
  19 H19           -3.0970    -3.1683     1.3220 H       
  20 H20           -1.5215    -3.2227     2.1486 H       
  21 H21           -0.6057     3.8750     0.9160 H       
  22 H22           -0.6141     3.8847    -0.8639 H       
  23 H23           -3.0908     3.7639    -0.8528 H       
  24 H24           -3.0824     3.7543     0.9271 H       
  25 H25           -2.5168     5.1914     0.0422 H       
@<TRIPOS>BOND
   1    1    2 1
   2    1    7 2
   3    1    8 1
   4    2    3 3
   5    3    4 1
   6    4    5 1
   7    4   12 1
   8    4   13 1
   9    5    6 1
  10    5    9 1
  11    5   14 1
  12    6   15 1
  13    6   16 1
  14    6   17 1
  15    8   10 1
  16    9   18 1
  17    9   19 1
  18    9   20 1
  19   10   11 1
  20   10   21 1
  21   10   22 1
  22   11   23 1
  23   11   24 1
  24   11   25 1

#	End of record

