#	Name: ASD08170573
#	Creating user name:	WinNT
#	Creation time:	15. 06. 2019 21:17

#	Modifying user name:	WinNT
#	Modification time:	15. 06. 2019 21:17

#	Program:	/corina/corina34_cracker 3.40 0067  02.08.2006

@<TRIPOS>MOLECULE
ASD08170573
  64   69    0    0    0
SMALL
NO_CHARGES


@<TRIPOS>ATOM
   1 C1            -0.0184     1.5028     0.0103 C.3     
   2 C2             0.0021    -0.0041     0.0020 C.2     
   3 N3             0.5145    -0.6768     1.0514 N.am    
   4 C4             0.5334    -2.0674     1.0438 C.2     
   5 S5             1.1472    -3.0646     2.2942 S.3     
   6 C6             0.7151    -4.4871     1.3447 C.2     
   7 C7             0.9297    -5.9233     1.7474 C.3     
   8 C8             2.3037    -6.3894     1.2616 C.3     
   9 C9             3.8955    -8.3136     1.1846 C.3     
  10 C10            4.1101    -9.7499     1.5873 C.2     
  11 S11            4.8384   -10.3106     3.0929 S.3     
  12 C12            4.6159   -11.9284     2.5754 C.2     
  13 N13            4.9749   -13.0652     3.2915 N.am    
  14 C14            4.7462   -14.2882     2.7734 C.2     
  15 C15            5.1353   -15.5201     3.5494 C.3     
  16 N16            0.0834    -2.8255     0.0898 N.2     
  17 N17            0.1799    -4.0753     0.2394 N.2     
  18 N18            3.7877   -10.7944     0.8926 N.2     
  19 N19            4.0556   -11.9173     1.4036 N.2     
  20 O20            4.2272   -14.3974     1.6827 O.2     
  21 O21           -0.4426    -0.6114    -0.9490 O.2     
  22 O22            4.6906   -16.6897     2.8535 O.3     
  23 C23            2.5215    -7.8475     1.6704 C.3     
  24 C24            5.2128   -17.8790     3.2603 C.ar    
  25 C25            6.3663   -17.9219     4.0341 C.ar    
  26 O26            6.9977   -16.7754     4.4075 O.3     
  27 C27            6.6630   -15.5896     3.6783 C.3     
  28 C28            4.5828   -19.0596     2.8953 C.ar    
  29 C29            5.1021   -20.2749     3.2989 C.ar    
  30 C30            6.2507   -20.3177     4.0672 C.ar    
  31 C31            6.8832   -19.1451     4.4345 C.ar    
  32 C32            1.4192     2.0400    -0.0005 C.3     
  33 O33            1.3629     3.4706    -0.0055 O.3     
  34 C34            0.4926     4.0455    -0.8799 C.ar    
  35 C35           -0.5317     3.3033    -1.4555 C.ar    
  36 O36           -0.6851     1.9831    -1.1622 O.3     
  37 C37            0.6333     5.3885    -1.1968 C.ar    
  38 C38           -0.2438     5.9868    -2.0814 C.ar    
  39 C39           -1.2644     5.2491    -2.6519 C.ar    
  40 C40           -1.4095     3.9103    -2.3414 C.ar    
  41 H41           -0.5370     1.8584     0.9006 H       
  42 H42            0.8702    -0.1912     1.8120 H       
  43 H43            0.8804    -6.0075     2.8330 H       
  44 H44            0.1554    -6.5459     1.2991 H       
  45 H45            2.3530    -6.3052     0.1760 H       
  46 H46            3.0780    -5.7668     1.7099 H       
  47 H47            4.6698    -7.6910     1.6329 H       
  48 H48            3.9448    -8.2294     0.0990 H       
  49 H49            5.3900   -12.9779     4.1639 H       
  50 H50            4.6832   -15.4881     4.5407 H       
  51 H51            2.4722    -7.9318     2.7561 H       
  52 H52            1.7472    -8.4701     1.2222 H       
  53 H53            7.1141   -15.6282     2.6868 H       
  54 H54            7.0270   -14.7132     4.2146 H       
  55 H55            3.6853   -19.0289     2.2953 H       
  56 H56            4.6096   -21.1929     3.0140 H       
  57 H57            6.6542   -21.2690     4.3810 H       
  58 H58            7.7804   -19.1813     5.0345 H       
  59 H59            1.9470     1.6959     0.8890 H       
  60 H60            1.9360     1.6893    -0.8939 H       
  61 H61            1.4294     5.9672    -0.7520 H       
  62 H62           -0.1321     7.0325    -2.3271 H       
  63 H63           -1.9493     5.7198    -3.3417 H       
  64 H64           -2.2074     3.3362    -2.7888 H       
@<TRIPOS>BOND
   1    1    2 1
   2    1   32 1
   3    1   36 1
   4    1   41 1
   5    2    3 am
   6    2   21 2
   7    3    4 1
   8    3   42 1
   9    4    5 1
  10    4   16 2
  11    5    6 1
  12    6    7 1
  13    6   17 2
  14    7    8 1
  15    7   43 1
  16    7   44 1
  17    8   23 1
  18    8   45 1
  19    8   46 1
  20    9   10 1
  21    9   23 1
  22    9   47 1
  23    9   48 1
  24   10   11 1
  25   10   18 2
  26   11   12 1
  27   12   13 1
  28   12   19 2
  29   13   14 am
  30   13   49 1
  31   14   15 1
  32   14   20 2
  33   15   22 1
  34   15   27 1
  35   15   50 1
  36   16   17 1
  37   18   19 1
  38   22   24 1
  39   23   51 1
  40   23   52 1
  41   24   25 ar
  42   24   28 ar
  43   25   26 1
  44   25   31 ar
  45   26   27 1
  46   27   53 1
  47   27   54 1
  48   28   29 ar
  49   28   55 1
  50   29   30 ar
  51   29   56 1
  52   30   31 ar
  53   30   57 1
  54   31   58 1
  55   32   33 1
  56   32   59 1
  57   32   60 1
  58   33   34 1
  59   34   35 ar
  60   34   37 ar
  61   35   36 1
  62   35   40 ar
  63   37   38 ar
  64   37   61 1
  65   38   39 ar
  66   38   62 1
  67   39   40 ar
  68   39   63 1
  69   40   64 1

#	End of record

