#	Name: ASD03331625
#	Creating user name:	WinNT
#	Creation time:	15. 06. 2019 20:39

#	Modifying user name:	WinNT
#	Modification time:	15. 06. 2019 20:39

#	Program:	/corina/corina34_cracker 3.40 0067  02.08.2006

@<TRIPOS>MOLECULE
ASD03331625
  44   47    0    0    0
SMALL
NO_CHARGES


@<TRIPOS>ATOM
   1 C1            -0.0415     1.4443     0.7319 C.ar    
   2 C2            -0.0348     0.1165     1.0539 C.ar    
   3 C3             1.1575    -0.5333     1.3414 C.ar    
   4 C4             2.3554     0.1474     1.3080 C.ar    
   5 C5             2.3735     1.4995     0.9828 C.ar    
   6 C6             1.1615     2.1546     0.6914 C.ar    
   7 N7             3.3828     2.4299     0.8683 N.pl3   
   8 C8             2.8540     3.6499     0.5151 C.2     
   9 C9             1.5076     3.5433     0.3932 C.2     
  10 C10            3.6342     4.8881     0.3019 C.ar    
  11 C11            0.5505     4.6464     0.0215 C.3     
  12 C12           -0.8590     4.1131     0.0319 C.ar    
  13 C13            0.8890     5.1656    -1.3773 C.3     
  14 C14           -1.6743     4.3359     1.1258 C.ar    
  15 C15           -2.9671     3.8468     1.1353 C.ar    
  16 C16           -3.4449     3.1351     0.0507 C.ar    
  17 C17           -2.6299     2.9131    -1.0435 C.ar    
  18 C18           -1.3384     3.4060    -1.0548 C.ar    
  19 C19            4.8137     4.8536    -0.4429 C.ar    
  20 C20            5.5369     6.0122    -0.6381 C.ar    
  21 C21            5.0953     7.2064    -0.0967 C.ar    
  22 C22            3.9269     7.2473     0.6431 C.ar    
  23 C23            3.1909     6.0970     0.8400 C.ar    
  24 N24            0.0373     6.3156    -1.6907 N.pl3   
  25 O25           -0.1349     7.1901    -0.8606 O.2     
  26 O26           -0.4988     6.3971    -2.7814 O.2     
  27 H27           -0.9727     1.9422     0.5051 H       
  28 H28           -0.9648    -0.4317     1.0854 H       
  29 H29            1.1464    -1.5832     1.5942 H       
  30 H30            3.2774    -0.3676     1.5340 H       
  31 H31            4.3250     2.2516     1.0147 H       
  32 H32            0.6364     5.4600     0.7417 H       
  33 H33            1.9354     5.4692    -1.4087 H       
  34 H34            0.7176     4.3763    -2.1092 H       
  35 H35           -1.3010     4.8919     1.9731 H       
  36 H36           -3.6038     4.0202     1.9902 H       
  37 H37           -4.4547     2.7523     0.0585 H       
  38 H38           -3.0030     2.3568    -1.8907 H       
  39 H39           -0.7029     3.2357    -1.9113 H       
  40 H40            5.1599     3.9219    -0.8654 H       
  41 H41            6.4500     5.9868    -1.2143 H       
  42 H42            5.6652     8.1105    -0.2521 H       
  43 H43            3.5878     8.1825     1.0636 H       
  44 H44            2.2765     6.1311     1.4136 H       
@<TRIPOS>BOND
   1    1    2 ar
   2    1    6 ar
   3    1   27 1
   4    2    3 ar
   5    2   28 1
   6    3    4 ar
   7    3   29 1
   8    4    5 ar
   9    4   30 1
  10    5    7 1
  11    5    6 ar
  12    6    9 1
  13    7    8 1
  14    7   31 1
  15    8    9 2
  16    8   10 1
  17    9   11 1
  18   10   19 ar
  19   10   23 ar
  20   11   13 1
  21   11   12 1
  22   11   32 1
  23   12   14 ar
  24   12   18 ar
  25   13   24 1
  26   13   33 1
  27   13   34 1
  28   14   15 ar
  29   14   35 1
  30   15   16 ar
  31   15   36 1
  32   16   17 ar
  33   16   37 1
  34   17   18 ar
  35   17   38 1
  36   18   39 1
  37   19   20 ar
  38   19   40 1
  39   20   21 ar
  40   20   41 1
  41   21   22 ar
  42   21   42 1
  43   22   23 ar
  44   22   43 1
  45   23   44 1
  46   24   25 2
  47   24   26 2

#	End of record

