#	Name: ASD01870265
#	Creating user name:	WinNT
#	Creation time:	15. 06. 2019 19:38

#	Modifying user name:	WinNT
#	Modification time:	15. 06. 2019 19:38

#	Program:	/corina/corina34_cracker 3.40 0067  02.08.2006

@<TRIPOS>MOLECULE
ASD01870265
  54   58    0    0    0
SMALL
NO_CHARGES


@<TRIPOS>ATOM
   1 C1             0.1897     1.2483     1.2237 C.ar    
   2 C2             0.1579    -0.1099     0.9172 C.ar    
   3 C3             1.2493    -0.7392     0.3964 C.ar    
   4 C4             2.4233    -0.0102     0.1642 C.ar    
   5 C5             2.4554     1.3759     0.4765 C.ar    
   6 C6             1.3136     1.9895     1.0115 C.ar    
   7 C7             3.5796    -0.6068    -0.3717 C.ar    
   8 N8             4.6587     0.1023    -0.5761 N.ar    
   9 C9             4.7329     1.4108    -0.2963 C.ar    
  10 C10            3.6421     2.0792     0.2335 C.ar    
  11 C11            5.8377     2.3824    -0.4487 C.2     
  12 N12            5.4506     3.5999    -0.0323 N.am    
  13 C13            4.0587     3.5143     0.4249 C.3     
  14 C14            6.2785     4.8085    -0.0336 C.3     
  15 C15            5.3926     6.0333    -0.2702 C.3     
  16 C16            4.3492     6.1310     0.8446 C.3     
  17 C17            5.0564     6.2662     2.1946 C.3     
  18 C18            5.9423     5.0414     2.4312 C.3     
  19 C19            6.9857     4.9437     1.3164 C.3     
  20 C20            3.5741    -2.0748    -0.7122 C.3     
  21 C21            3.1220    -2.2580    -2.1381 C.ar    
  22 C22            4.0423    -2.2618    -3.1689 C.ar    
  23 N23            3.6542    -2.4216    -4.4191 N.ar    
  24 C24            2.3845    -2.5834    -4.7358 C.ar    
  25 C25            1.4074    -2.5910    -3.7580 C.ar    
  26 C26            1.7777    -2.4307    -2.4318 C.ar    
  27 O27            6.9395     2.1171    -0.8883 O.2     
  28 O28            4.7321     5.9071    -1.5310 O.3     
  29 C29            1.9940    -2.7615    -6.1804 C.3     
  30 F30            3.1469    -2.8333    -6.9696 F       
  31 F31            1.2575    -3.9425    -6.3221 F       
  32 F32            1.2151    -1.6741    -6.5904 F       
  33 H33           -0.6909     1.7223     1.6314 H       
  34 H34           -0.7458    -0.6737     1.0953 H       
  35 H35            1.2095    -1.7933     0.1645 H       
  36 H36            1.3245     3.0421     1.2530 H       
  37 H37            3.4267     4.1711    -0.1728 H       
  38 H38            3.9928     3.7864     1.4783 H       
  39 H39            7.0218     4.7389    -0.8278 H       
  40 H40            6.0086     6.9326    -0.2711 H       
  41 H41            3.7181     7.0036     0.6761 H       
  42 H42            3.7332     5.2318     0.8456 H       
  43 H43            5.6724     7.1655     2.1937 H       
  44 H44            4.3131     6.3358     2.9888 H       
  45 H45            6.4461     5.1377     3.3929 H       
  46 H46            5.3263     4.1422     2.4321 H       
  47 H47            7.6168     4.0712     1.4849 H       
  48 H48            7.6017     5.8430     1.3154 H       
  49 H49            4.5797    -2.4788    -0.5952 H       
  50 H50            2.8915    -2.6002    -0.0443 H       
  51 H51            5.0915    -2.1320    -2.9481 H       
  52 H52            0.3690    -2.7236    -4.0237 H       
  53 H53            1.0361    -2.4325    -1.6466 H       
  54 H54            4.1521     6.6500    -1.7474 H       
@<TRIPOS>BOND
   1    1    2 ar
   2    1    6 ar
   3    1   33 1
   4    2    3 ar
   5    2   34 1
   6    3    4 ar
   7    3   35 1
   8    4    5 ar
   9    4    7 ar
  10    5    6 ar
  11    5   10 ar
  12    6   36 1
  13    7    8 ar
  14    7   20 1
  15    8    9 ar
  16    9   10 ar
  17    9   11 1
  18   10   13 1
  19   11   12 am
  20   11   27 2
  21   12   13 1
  22   12   14 1
  23   13   37 1
  24   13   38 1
  25   14   15 1
  26   14   19 1
  27   14   39 1
  28   15   16 1
  29   15   28 1
  30   15   40 1
  31   16   17 1
  32   16   41 1
  33   16   42 1
  34   17   18 1
  35   17   43 1
  36   17   44 1
  37   18   19 1
  38   18   45 1
  39   18   46 1
  40   19   47 1
  41   19   48 1
  42   20   21 1
  43   20   49 1
  44   20   50 1
  45   21   22 ar
  46   21   26 ar
  47   22   23 ar
  48   22   51 1
  49   23   24 ar
  50   24   25 ar
  51   24   29 1
  52   25   26 ar
  53   25   52 1
  54   26   53 1
  55   28   54 1
  56   29   30 1
  57   29   31 1
  58   29   32 1

#	End of record

