#	Name: ASD01478023
#	Creating user name:	WinNT
#	Creation time:	15. 06. 2019 19:21

#	Modifying user name:	WinNT
#	Modification time:	15. 06. 2019 19:21

#	Program:	/corina/corina34_cracker 3.40 0067  02.08.2006

@<TRIPOS>MOLECULE
ASD01478023
  82   85    0    0    0
SMALL
NO_CHARGES


@<TRIPOS>ATOM
   1 C1             1.5814     1.3471     1.9363 C.3     
   2 C2             3.0048     2.1339     0.1897 C.2     
   3 O3             2.7977     2.0189     1.5150 O.3     
   4 N4             4.1144     2.7468    -0.2683 N.am    
   5 O5             2.1914     1.6853    -0.5936 O.2     
   6 C6             3.6153     4.1137    -2.2340 C.3     
   7 C7             4.3397     2.8720    -1.7105 C.3     
   8 C8             5.8395     3.0038    -1.9828 C.3     
   9 C9             6.0851     3.0091    -3.4929 C.3     
  10 N10            7.5266     2.9873    -3.7533 N.am    
  11 S11            8.2968     1.5472    -4.0278 S.o2    
  12 C12            8.2437     1.2500    -5.7637 C.ar    
  13 C13            9.2625     1.7145    -6.5749 C.ar    
  14 C14            9.2233     1.4828    -7.9362 C.ar    
  15 C15            8.1605     0.7834    -8.4893 C.ar    
  16 C16            7.1395     0.3183    -7.6732 C.ar    
  17 C17            7.1862     0.5478    -6.3117 C.ar    
  18 O18            9.6634     1.7537    -3.6976 O.2     
  19 O19            7.4946     0.5417    -3.4239 O.2     
  20 C20            8.2868     4.2395    -3.7708 C.3     
  21 C21            7.7982     5.1167    -4.9252 C.3     
  22 C22            8.4845     6.4823    -4.8540 C.3     
  23 C23            8.1383     4.4438    -6.2565 C.3     
  24 O24            6.3207     4.2248    -1.4176 O.3     
  25 C25            1.8436    -0.1592     2.0868 C.3     
  26 O26            2.7897    -0.4101     3.1232 O.3     
  27 C27            2.4420     0.0934     4.4211 C.3     
  28 C28            2.2759     1.6029     4.3031 C.3     
  29 C29            1.1424     1.8777     3.2942 C.3     
  30 C30            1.8389     2.2705     5.6206 C.3     
  31 C31            0.8445     3.3786     3.3092 C.3     
  32 O32            8.1194     0.5545    -9.8282 O.3     
  33 C33            6.9951    -0.1723   -10.3279 C.3     
  34 S34            1.2183     3.8967     5.0290 S.o2    
  35 O35            0.0060     4.2110     5.7005 O.2     
  36 O36            2.2870     4.8331     5.0173 O.2     
  37 C37            2.1276     3.9309    -2.0773 C.ar    
  38 C38            1.4998     4.3383    -0.9151 C.ar    
  39 C39            0.1352     4.1705    -0.7714 C.ar    
  40 C40           -0.6016     3.5956    -1.7900 C.ar    
  41 C41            0.0262     3.1890    -2.9525 C.ar    
  42 C42            1.3901     3.3608    -3.0980 C.ar    
  43 H43            0.7939     1.5136     1.2013 H       
  44 H44            4.7638     3.1050     0.3569 H       
  45 H45            3.9357     4.9875    -1.6665 H       
  46 H46            3.8548     4.2569    -3.2876 H       
  47 H47            3.9550     1.9865    -2.2165 H       
  48 H48            6.3659     2.1624    -1.5320 H       
  49 H49            5.6219     2.1293    -3.9395 H       
  50 H50            5.6508     3.9090    -3.9285 H       
  51 H51           10.0895     2.2593    -6.1439 H       
  52 H52           10.0192     1.8462    -8.5695 H       
  53 H53            6.3111    -0.2264    -8.1013 H       
  54 H54            6.3917     0.1860    -5.6760 H       
  55 H55            8.1414     4.7661    -2.8276 H       
  56 H56            9.3460     4.0197    -3.9047 H       
  57 H57            6.7188     5.2482    -4.8499 H       
  58 H58            9.5639     6.3508    -4.9293 H       
  59 H59            8.1363     7.1072    -5.6764 H       
  60 H60            8.2421     6.9617    -3.9056 H       
  61 H61            9.2183     4.3186    -6.3348 H       
  62 H62            7.6550     3.4679    -6.3043 H       
  63 H63            7.7840     5.0654    -7.0788 H       
  64 H64            5.9610     5.0198    -1.8343 H       
  65 H65            0.9075    -0.6636     2.3264 H       
  66 H66            2.2303    -0.5512     1.1461 H       
  67 H67            1.5064    -0.3564     4.7534 H       
  68 H68            3.2361    -0.1364     5.1315 H       
  69 H69            3.2041     2.0502     3.9475 H       
  70 H70            0.2462     1.3451     3.6123 H       
  71 H71            1.0437     1.7009     6.1015 H       
  72 H72            2.6870     2.3979     6.2933 H       
  73 H73            1.4901     3.9025     2.6043 H       
  74 H74           -0.2043     3.5615     3.0753 H       
  75 H75            6.9624    -1.1569    -9.8614 H       
  76 H76            6.0789     0.3705   -10.0953 H       
  77 H77            7.0863    -0.2850   -11.4082 H       
  78 H78            2.0754     4.7875    -0.1193 H       
  79 H79           -0.3552     4.4882     0.1369 H       
  80 H80           -1.6676     3.4639    -1.6774 H       
  81 H81           -0.5494     2.7395    -3.7482 H       
  82 H82            1.8799     3.0465    -4.0078 H       
@<TRIPOS>BOND
   1    1   25 1
   2    1    3 1
   3    1   29 1
   4    1   43 1
   5    2    3 1
   6    2    4 am
   7    2    5 2
   8    4    7 1
   9    4   44 1
  10    6    7 1
  11    6   37 1
  12    6   45 1
  13    6   46 1
  14    7    8 1
  15    7   47 1
  16    8    9 1
  17    8   24 1
  18    8   48 1
  19    9   10 1
  20    9   49 1
  21    9   50 1
  22   10   11 am
  23   10   20 1
  24   11   12 1
  25   11   18 2
  26   11   19 2
  27   12   13 ar
  28   12   17 ar
  29   13   14 ar
  30   13   51 1
  31   14   15 ar
  32   14   52 1
  33   15   16 ar
  34   15   32 1
  35   16   17 ar
  36   16   53 1
  37   17   54 1
  38   20   21 1
  39   20   55 1
  40   20   56 1
  41   21   22 1
  42   21   23 1
  43   21   57 1
  44   22   58 1
  45   22   59 1
  46   22   60 1
  47   23   61 1
  48   23   62 1
  49   23   63 1
  50   24   64 1
  51   25   26 1
  52   25   65 1
  53   25   66 1
  54   26   27 1
  55   27   28 1
  56   27   67 1
  57   27   68 1
  58   28   29 1
  59   28   30 1
  60   28   69 1
  61   29   31 1
  62   29   70 1
  63   30   34 1
  64   30   71 1
  65   30   72 1
  66   31   34 1
  67   31   73 1
  68   31   74 1
  69   32   33 1
  70   33   75 1
  71   33   76 1
  72   33   77 1
  73   34   35 2
  74   34   36 2
  75   37   38 ar
  76   37   42 ar
  77   38   39 ar
  78   38   78 1
  79   39   40 ar
  80   39   79 1
  81   40   41 ar
  82   40   80 1
  83   41   42 ar
  84   41   81 1
  85   42   82 1

#	End of record

