#	Name: ASD01240025
#	Creating user name:	WinNT
#	Creation time:	15. 06. 2019 19:15

#	Modifying user name:	WinNT
#	Modification time:	15. 06. 2019 19:15

#	Program:	/corina/corina34_cracker 3.40 0067  02.08.2006

@<TRIPOS>MOLECULE
ASD01240025
  50   53    0    0    0
SMALL
NO_CHARGES


@<TRIPOS>ATOM
   1 O1            -0.0164     1.3547     0.0095 O.3     
   2 C2             0.0021    -0.0041     0.0020 C.ar    
   3 C3             0.0230    -0.7048     1.1983 C.ar    
   4 C4             0.0392    -2.0901     1.1863 C.ar    
   5 O5             0.0595    -2.7768     2.3588 O.3     
   6 C6             0.0345    -2.7806    -0.0201 C.ar    
   7 C7             0.0176    -2.0817    -1.2143 C.ar    
   8 C8            -0.0058    -0.6913    -1.2008 C.ar    
   9 O9             0.0237    -2.7169    -2.4152 O.3     
  10 C10           -0.3328    -4.0997    -2.4407 C.3     
  11 C11            0.4744    -4.8272    -1.3579 C.3     
  12 C12            0.0420    -4.2881     0.0079 C.3     
  13 O13            1.8915    -4.5804    -1.5552 O.3     
  14 C14            2.7419    -5.5483    -1.1604 C.2     
  15 O15            2.3109    -6.5706    -0.6649 O.2     
  16 C16            4.1956    -5.3668    -1.3298 C.ar    
  17 C17            5.0787    -6.3699    -0.9208 C.ar    
  18 C18            6.4406    -6.1972    -1.0807 C.ar    
  19 O19            7.3005    -7.1729    -0.6829 O.3     
  20 C20            6.9331    -5.0253    -1.6491 C.ar    
  21 C21            6.0556    -4.0240    -2.0571 C.ar    
  22 C22            4.6924    -4.1939    -1.9049 C.ar    
  23 O23            6.5400    -2.8805    -2.6115 O.3     
  24 O24            8.2725    -4.8582    -1.8056 O.3     
  25 C25           -0.0096    -4.6824    -3.7924 C.ar    
  26 C26            1.1564    -4.3187    -4.4391 C.ar    
  27 C27            1.4575    -4.8506    -5.6795 C.ar    
  28 C28            0.5896    -5.7501    -6.2766 C.ar    
  29 C29           -0.5847    -6.1165    -5.6252 C.ar    
  30 C30           -0.8776    -5.5842    -4.3803 C.ar    
  31 O31           -1.4399    -6.9992    -6.2073 O.3     
  32 O32            0.8840    -6.2738    -7.4966 O.3     
  33 H33            0.8616     1.7600     0.0033 H       
  34 H34            0.0269    -0.1717     2.1376 H       
  35 H35           -0.8180    -2.9860     2.7073 H       
  36 H36           -0.0218    -0.1448    -2.1322 H       
  37 H37           -1.3986    -4.2078    -2.2390 H       
  38 H38            0.2767    -5.8979    -1.4095 H       
  39 H39            0.7394    -4.6331     0.7712 H       
  40 H40           -0.9588    -4.6515     0.2410 H       
  41 H41            4.6973    -7.2790    -0.4799 H       
  42 H42            7.5018    -7.8235    -1.3693 H       
  43 H43            4.0122    -3.4170    -2.2215 H       
  44 H44            6.6324    -2.9182    -3.5734 H       
  45 H45            8.6126    -5.1786    -2.6522 H       
  46 H46            1.8337    -3.6172    -3.9748 H       
  47 H47            2.3692    -4.5645    -6.1829 H       
  48 H48           -1.7881    -5.8668    -3.8728 H       
  49 H49           -1.2622    -7.9235    -5.9855 H       
  50 H50            1.3944    -7.0943    -7.4596 H       
@<TRIPOS>BOND
   1    1    2 1
   2    1   33 1
   3    2    3 ar
   4    2    8 ar
   5    3    4 ar
   6    3   34 1
   7    4    5 1
   8    4    6 ar
   9    5   35 1
  10    6    7 ar
  11    6   12 1
  12    7    8 ar
  13    7    9 1
  14    8   36 1
  15    9   10 1
  16   10   11 1
  17   10   25 1
  18   10   37 1
  19   11   12 1
  20   11   13 1
  21   11   38 1
  22   12   39 1
  23   12   40 1
  24   13   14 1
  25   14   15 2
  26   14   16 1
  27   16   17 ar
  28   16   22 ar
  29   17   18 ar
  30   17   41 1
  31   18   19 1
  32   18   20 ar
  33   19   42 1
  34   20   21 ar
  35   20   24 1
  36   21   22 ar
  37   21   23 1
  38   22   43 1
  39   23   44 1
  40   24   45 1
  41   25   26 ar
  42   25   30 ar
  43   26   27 ar
  44   26   46 1
  45   27   28 ar
  46   27   47 1
  47   28   29 ar
  48   28   32 1
  49   29   30 ar
  50   29   31 1
  51   30   48 1
  52   31   49 1
  53   32   50 1

#	End of record

