#	Name: ASD00170688
#	Creating user name:	WinNT
#	Creation time:	15. 06. 2019 18:32

#	Modifying user name:	WinNT
#	Modification time:	15. 06. 2019 18:32

#	Program:	/corina/corina34_cracker 3.40 0067  02.08.2006

@<TRIPOS>MOLECULE
ASD00170688
  38   39    0    0    0
SMALL
NO_CHARGES


@<TRIPOS>ATOM
   1 Cl1           -2.6327     5.0999     5.3354 Cl      
   2 C2            -1.8805     5.4014     3.8002 C.ar    
   3 C3            -0.7017     6.1250     3.7384 C.ar    
   4 C4            -0.0963     6.3693     2.5185 C.ar    
   5 C5            -0.6642     5.8930     1.3552 C.ar    
   6 C6            -1.8527     5.1627     1.4098 C.ar    
   7 C7            -2.4560     4.9143     2.6432 C.ar    
   8 C8            -2.4669     4.6496     0.1656 C.2     
   9 O9            -1.9862     4.9390    -0.9150 O.2     
  10 C10           -3.6516     3.7947     0.2336 C.2     
  11 C11           -3.6056     2.4211     0.1690 C.2     
  12 N12           -2.4496     1.6795     0.0339 N.pl3   
  13 S13           -5.1735     1.7620     0.2798 S.3     
  14 C14           -5.9153     3.3461     0.4158 C.2     
  15 C15           -4.9996     4.3015     0.3825 C.2     
  16 C16           -5.3282     5.7692     0.4782 C.3     
  17 C17           -5.5898     6.3256    -0.9229 C.3     
  18 C18           -6.8146     5.6345    -1.5256 C.3     
  19 C19           -5.8461     7.8313    -0.8339 C.3     
  20 C20           -4.3704     6.0673    -1.8101 C.3     
  21 H21           -0.2530     6.5005     4.6462 H       
  22 H22            0.8230     6.9347     2.4769 H       
  23 H23           -0.1905     6.0850     0.4038 H       
  24 H24           -3.3756     4.3500     2.6921 H       
  25 H25           -1.5990     2.1268    -0.0977 H       
  26 H26           -2.4877     0.7109     0.0704 H       
  27 H27           -6.9766     3.5184     0.5181 H       
  28 H28           -6.2174     5.9030     1.0942 H       
  29 H29           -4.4902     6.3004     0.9294 H       
  30 H30           -7.6833     5.8185    -0.8935 H       
  31 H31           -7.0010     6.0309    -2.5237 H       
  32 H32           -6.6320     4.5618    -1.5889 H       
  33 H33           -4.9735     8.3237    -0.4045 H       
  34 H34           -6.0325     8.2277    -1.8320 H       
  35 H35           -6.7148     8.0153    -0.2018 H       
  36 H36           -4.1876     4.9946    -1.8732 H       
  37 H37           -4.5569     6.4635    -2.8083 H       
  38 H38           -3.4979     6.5599    -1.3809 H       
@<TRIPOS>BOND
   1    1    2 1
   2    2    3 ar
   3    2    7 ar
   4    3    4 ar
   5    3   21 1
   6    4    5 ar
   7    4   22 1
   8    5    6 ar
   9    5   23 1
  10    6    7 ar
  11    6    8 1
  12    7   24 1
  13    8    9 2
  14    8   10 1
  15   10   11 2
  16   10   15 1
  17   11   12 1
  18   11   13 1
  19   12   25 1
  20   12   26 1
  21   13   14 1
  22   14   15 2
  23   14   27 1
  24   15   16 1
  25   16   17 1
  26   16   28 1
  27   16   29 1
  28   17   18 1
  29   17   19 1
  30   17   20 1
  31   18   30 1
  32   18   31 1
  33   18   32 1
  34   19   33 1
  35   19   34 1
  36   19   35 1
  37   20   36 1
  38   20   37 1
  39   20   38 1

#	End of record

