#	Name: ASD02198810
#	Creating user name:	WinNT
#	Creation time:	15. 06. 2019 20:20

#	Modifying user name:	WinNT
#	Modification time:	15. 06. 2019 20:20

#	Program:	/corina/corina34_cracker 3.40 0067  02.08.2006

@<TRIPOS>MOLECULE
ASD02198810
  52   56    0    0    0
SMALL
NO_CHARGES


@<TRIPOS>ATOM
   1 C1            -0.0433     1.5018    -0.1150 C.2     
   2 C2            -0.0731     0.1621     0.0975 C.2     
   3 N3             1.0712    -0.5394     0.2603 N.pl3   
   4 N4             2.2357    -0.0047     0.2263 N.2     
   5 C5             2.4072     1.2848     0.0277 C.2     
   6 C6             1.2215     2.1359    -0.1605 C.2     
   7 C7             0.9796    -1.9184     0.4773 C.ar    
   8 C8             1.5813    -2.4900     1.5978 C.ar    
   9 C9             1.4888    -3.8554     1.8095 C.ar    
  10 C10            0.7978    -4.6515     0.9065 C.ar    
  11 C11            0.1994    -4.0799    -0.2096 C.ar    
  12 C12            0.2846    -2.7186    -0.4201 C.ar    
  13 C13            3.7641     1.8672    -0.0050 C.2     
  14 N14            4.3061     2.6070    -1.0182 N.pl3   
  15 N15            5.6078     2.9591    -0.6402 N.2     
  16 C16            5.8515     2.4600     0.5454 C.2     
  17 C17            4.7197     1.7719     0.9828 C.2     
  18 C18            3.6732     2.9513    -2.2193 C.ar    
  19 C19            3.8070     4.2343    -2.7331 C.ar    
  20 C20            3.1818     4.5716    -3.9179 C.ar    
  21 C21            2.4227     3.6335    -4.5923 C.ar    
  22 C22            2.2866     2.3536    -4.0829 C.ar    
  23 C23            2.9153     2.0086    -2.9014 C.ar    
  24 O24            1.3244     3.3390    -0.3487 O.2     
  25 N25            0.7040    -6.0335     1.1206 N.pl3   
  26 N26            1.2555    -6.7404     2.1970 N.2     
  27 C27            0.9568    -8.0063     2.0512 C.2     
  28 C28            0.2062    -8.1470     0.8789 C.2     
  29 C29            0.0602    -6.9197     0.3277 C.2     
  30 Cl30           1.3319     1.1787    -4.9327 Cl      
  31 C31            7.1399     2.6087     1.3128 C.3     
  32 O32            2.2577    -1.7086     2.4803 O.3     
  33 C33            2.8486    -2.3623     3.6053 C.3     
  34 H34           -0.9547     2.0654    -0.2495 H       
  35 H35           -1.0229    -0.3504     0.1375 H       
  36 H36            1.9542    -4.3006     2.6764 H       
  37 H37           -0.3374    -4.7013    -0.9111 H       
  38 H38           -0.1813    -2.2767    -1.2884 H       
  39 H39            4.6139     1.2524     1.9238 H       
  40 H40            4.3992     4.9682    -2.2067 H       
  41 H41            3.2858     5.5695    -4.3176 H       
  42 H42            1.9346     3.8998    -5.5182 H       
  43 H43            2.8090     1.0100    -2.5040 H       
  44 H44            1.2407    -8.8048     2.7207 H       
  45 H45           -0.1899    -9.0715     0.4852 H       
  46 H46           -0.4698    -6.6902    -0.5848 H       
  47 H47            7.0919     3.5035     1.9334 H       
  48 H48            7.2883     1.7344     1.9466 H       
  49 H49            7.9714     2.6958     0.6134 H       
  50 H50            3.5689    -3.1030     3.2580 H       
  51 H51            3.3563    -1.6258     4.2281 H       
  52 H52            2.0712    -2.8567     4.1878 H       
@<TRIPOS>BOND
   1    1    2 2
   2    1    6 1
   3    1   34 1
   4    2    3 1
   5    2   35 1
   6    3    4 1
   7    3    7 1
   8    4    5 2
   9    5    6 1
  10    5   13 1
  11    6   24 2
  12    7    8 ar
  13    7   12 ar
  14    8    9 ar
  15    8   32 1
  16    9   10 ar
  17    9   36 1
  18   10   11 ar
  19   10   25 1
  20   11   12 ar
  21   11   37 1
  22   12   38 1
  23   13   14 1
  24   13   17 2
  25   14   15 1
  26   14   18 1
  27   15   16 2
  28   16   17 1
  29   16   31 1
  30   17   39 1
  31   18   19 ar
  32   18   23 ar
  33   19   20 ar
  34   19   40 1
  35   20   21 ar
  36   20   41 1
  37   21   22 ar
  38   21   42 1
  39   22   23 ar
  40   22   30 1
  41   23   43 1
  42   25   26 1
  43   25   29 1
  44   26   27 2
  45   27   28 1
  46   27   44 1
  47   28   29 2
  48   28   45 1
  49   29   46 1
  50   31   47 1
  51   31   48 1
  52   31   49 1
  53   32   33 1
  54   33   50 1
  55   33   51 1
  56   33   52 1

#	End of record

