#	Name: ASD01410369
#	Creating user name:	WinNT
#	Creation time:	15. 06. 2019 19:17

#	Modifying user name:	WinNT
#	Modification time:	15. 06. 2019 19:17

#	Program:	/corina/corina34_cracker 3.40 0067  02.08.2006

@<TRIPOS>MOLECULE
ASD01410369
  60   64    0    0    0
SMALL
NO_CHARGES


@<TRIPOS>ATOM
   1 N1            -0.0166     1.3704     0.0096 N.pl3   
   2 C2             0.0021    -0.0041     0.0020 C.2     
   3 C3             1.2887    -0.4360    -0.0126 C.2     
   4 C4             2.1282     0.7037    -0.0145 C.ar    
   5 C5             3.5207     0.8713    -0.0268 C.ar    
   6 C6             4.0562     2.1223    -0.0248 C.ar    
   7 C7             3.2236     3.2517    -0.0103 C.ar    
   8 C8             1.8376     3.1029     0.0021 C.ar    
   9 C9             1.2836     1.8325    -0.0004 C.ar    
  10 C10            3.8170     4.6011    -0.0078 C.2     
  11 O11            3.0983     5.5808     0.0047 O.2     
  12 O12            5.1566     4.7481    -0.0193 O.3     
  13 C13           -1.1925    -0.8755     0.0092 C.ar    
  14 C14           -2.2533    -0.6034     0.8742 C.ar    
  15 C15           -3.3652    -1.4202     0.8756 C.ar    
  16 C16           -3.4298    -2.5073     0.0222 C.ar    
  17 C17           -2.3816    -2.7826    -0.8378 C.ar    
  18 C18           -1.2665    -1.9704    -0.8532 C.ar    
  19 C19            1.7426    -1.8730    -0.0246 C.3     
  20 C20            2.5720    -2.1353    -1.2833 C.3     
  21 C21            3.0329    -3.5942    -1.2955 C.3     
  22 C22            3.8861    -3.8699    -0.0558 C.3     
  23 C23            3.0567    -3.6076     1.2028 C.3     
  24 C24            2.5959    -2.1487     1.2151 C.3     
  25 C25           -1.2191     2.2071     0.0201 C.3     
  26 C26           -1.6244     2.4863     1.4445 C.2     
  27 C27           -2.8107     3.3112     1.7237 C.ar    
  28 O28           -0.9730     2.0313     2.3604 O.2     
  29 C29           -3.1901     3.5725     3.0442 C.ar    
  30 C30           -4.3026     4.3467     3.2977 C.ar    
  31 C31           -5.0434     4.8643     2.2494 C.ar    
  32 C32           -4.6747     4.6098     0.9399 C.ar    
  33 C33           -3.5612     3.8426     0.6700 C.ar    
  34 H34            4.1682     0.0070    -0.0376 H       
  35 H35            5.1290     2.2467    -0.0340 H       
  36 H36            1.1985     3.9734     0.0139 H       
  37 H37            5.4990     5.6524    -0.0171 H       
  38 H38           -2.2038     0.2445     1.5414 H       
  39 H39           -4.1868    -1.2107     1.5445 H       
  40 H40           -4.3021    -3.1440     0.0277 H       
  41 H41           -2.4382    -3.6327    -1.5015 H       
  42 H42           -0.4508    -2.1837    -1.5282 H       
  43 H43            0.8722    -2.5290    -0.0198 H       
  44 H44            1.9642    -1.9388    -2.1664 H       
  45 H45            3.4425    -1.4792    -1.2880 H       
  46 H46            2.1624    -4.2502    -1.2907 H       
  47 H47            3.6238    -3.7810    -2.1922 H       
  48 H48            4.2144    -4.9092    -0.0645 H       
  49 H49            4.7566    -3.2138    -0.0606 H       
  50 H50            2.1863    -4.2636     1.2076 H       
  51 H51            3.6646    -3.8040     2.0860 H       
  52 H52            3.4663    -1.4926     1.2103 H       
  53 H53            2.0050    -1.9618     2.1118 H       
  54 H54           -1.0115     3.1480    -0.4897 H       
  55 H55           -2.0282     1.6869    -0.4926 H       
  56 H56           -2.6134     3.1688     3.8632 H       
  57 H57           -4.5968     4.5494     4.3168 H       
  58 H58           -5.9140     5.4697     2.4544 H       
  59 H59           -5.2583     5.0166     0.1273 H       
  60 H60           -3.2747     3.6448    -0.3523 H       
@<TRIPOS>BOND
   1    1    2 1
   2    1    9 1
   3    1   25 1
   4    2    3 2
   5    2   13 1
   6    3    4 1
   7    3   19 1
   8    4    5 ar
   9    4    9 ar
  10    5    6 ar
  11    5   34 1
  12    6    7 ar
  13    6   35 1
  14    7    8 ar
  15    7   10 1
  16    8    9 ar
  17    8   36 1
  18   10   11 2
  19   10   12 1
  20   12   37 1
  21   13   14 ar
  22   13   18 ar
  23   14   15 ar
  24   14   38 1
  25   15   16 ar
  26   15   39 1
  27   16   17 ar
  28   16   40 1
  29   17   18 ar
  30   17   41 1
  31   18   42 1
  32   19   20 1
  33   19   24 1
  34   19   43 1
  35   20   21 1
  36   20   44 1
  37   20   45 1
  38   21   22 1
  39   21   46 1
  40   21   47 1
  41   22   23 1
  42   22   48 1
  43   22   49 1
  44   23   24 1
  45   23   50 1
  46   23   51 1
  47   24   52 1
  48   24   53 1
  49   25   26 1
  50   25   54 1
  51   25   55 1
  52   26   27 1
  53   26   28 2
  54   27   29 ar
  55   27   33 ar
  56   29   30 ar
  57   29   56 1
  58   30   31 ar
  59   30   57 1
  60   31   32 ar
  61   31   58 1
  62   32   33 ar
  63   32   59 1
  64   33   60 1

#	End of record

