#	Name: ASD03240982
#	Creating user name:	WinNT
#	Creation time:	15. 06. 2019 20:35

#	Modifying user name:	WinNT
#	Modification time:	15. 06. 2019 20:35

#	Program:	/corina/corina34_cracker 3.40 0067  02.08.2006

@<TRIPOS>MOLECULE
ASD03240982
  62   67    0    0    0
SMALL
NO_CHARGES


@<TRIPOS>ATOM
   1 C1            -0.0188     1.5336     0.0105 C.3     
   2 C2             0.0021    -0.0041     0.0020 C.3     
   3 C3             1.3815     0.0967    -0.6702 C.3     
   4 C4             1.5179     1.4762    -0.0045 C.3     
   5 O5            -0.5818     2.1049    -1.1721 O.3     
   6 C6            -0.5973     2.1316     1.2944 C.3     
   7 C7             2.3746    -0.9181    -0.1653 C.ar    
   8 C8             3.3681    -1.3872    -1.0061 C.ar    
   9 C9             4.2804    -2.3163    -0.5497 C.ar    
  10 C10            4.1997    -2.7823     0.7626 C.ar    
  11 C11            3.1960    -2.3051     1.6056 C.ar    
  12 C12            2.2926    -1.3725     1.1389 C.ar    
  13 N13            6.9691    -6.5937    -0.0345 N.pl3   
  14 C14            7.8707    -7.5254     0.4040 C.2     
  15 N15            8.3277    -7.5350     1.6688 N.2     
  16 C16            7.9374    -6.6547     2.5541 C.2     
  17 C17            6.9752    -5.6284     2.1585 C.ar    
  18 C18            6.5202    -4.6601     3.0600 C.ar    
  19 C19            5.6039    -3.7206     2.5992 C.ar    
  20 C20            5.1753    -3.7798     1.2587 C.ar    
  21 N21            5.6287    -4.7118     0.4339 N.ar    
  22 C22            6.4993    -5.6239     0.8301 C.ar    
  23 C23            8.1488    -8.3521    -0.6761 C.2     
  24 C24            7.4030    -7.9002    -1.7575 C.2     
  25 N25            6.6973    -6.8606    -1.3818 N.2     
  26 C26            7.4012    -8.5086    -3.1362 C.3     
  27 C27            5.0847    -2.6700     3.5075 C.ar    
  28 C28            4.5781    -3.0159     4.7586 C.ar    
  29 C29            4.0947    -2.0299     5.6023 C.ar    
  30 C30            4.1151    -0.7010     5.2008 C.ar    
  31 C31            4.6170    -0.3572     3.9598 C.ar    
  32 C32            5.1072    -1.3327     3.1148 C.ar    
  33 O33            3.5997    -2.3632     6.8233 O.3     
  34 C34            3.1178    -1.2954     7.6416 C.3     
  35 N35            1.3186     0.1546    -2.1367 N.3     
  36 H36            0.0329    -0.4458     0.9980 H       
  37 H37           -0.7629    -0.4476    -0.6353 H       
  38 H38            1.9766     2.2276    -0.6471 H       
  39 H39            1.9632     1.4391     0.9897 H       
  40 H40           -0.5977     3.0718    -1.1727 H       
  41 H41            0.0010     1.8098     2.1469 H       
  42 H42           -0.5800     3.2195     1.2285 H       
  43 H43           -1.6249     1.7917     1.4227 H       
  44 H44            3.4295    -1.0257    -2.0219 H       
  45 H45            5.0551    -2.6823    -1.2072 H       
  46 H46            3.1285    -2.6621     2.6227 H       
  47 H47            1.5175    -0.9992     1.7919 H       
  48 H48            8.3206    -6.6861     3.5633 H       
  49 H49            6.8690    -4.6430     4.0820 H       
  50 H50            8.8238    -9.1952    -0.6757 H       
  51 H51            6.6279    -9.2746    -3.1944 H       
  52 H52            7.2006    -7.7330    -3.8754 H       
  53 H53            8.3738    -8.9582    -3.3362 H       
  54 H54            4.5622    -4.0501     5.0693 H       
  55 H55            3.7372     0.0665     5.8602 H       
  56 H56            4.6300     0.6780     3.6521 H       
  57 H57            5.5033    -1.0603     2.1476 H       
  58 H58            2.7519    -1.6980     8.5861 H       
  59 H59            3.9280    -0.5925     7.8359 H       
  60 H60            2.3062    -0.7811     7.1270 H       
  61 H61            2.2430     0.2199    -2.5360 H       
  62 H62            0.8193    -0.6393    -2.5089 H       
@<TRIPOS>BOND
   1    1    2 1
   2    1    4 1
   3    1    5 1
   4    1    6 1
   5    2    3 1
   6    2   36 1
   7    2   37 1
   8    3    4 1
   9    3    7 1
  10    3   35 1
  11    4   38 1
  12    4   39 1
  13    5   40 1
  14    6   41 1
  15    6   42 1
  16    6   43 1
  17    7    8 ar
  18    7   12 ar
  19    8    9 ar
  20    8   44 1
  21    9   10 ar
  22    9   45 1
  23   10   11 ar
  24   10   20 1
  25   11   12 ar
  26   11   46 1
  27   12   47 1
  28   13   14 1
  29   13   22 1
  30   13   25 1
  31   14   15 1
  32   14   23 2
  33   15   16 2
  34   16   17 1
  35   16   48 1
  36   17   18 ar
  37   17   22 ar
  38   18   19 ar
  39   18   49 1
  40   19   20 ar
  41   19   27 1
  42   20   21 ar
  43   21   22 ar
  44   23   24 1
  45   23   50 1
  46   24   25 2
  47   24   26 1
  48   26   51 1
  49   26   52 1
  50   26   53 1
  51   27   28 ar
  52   27   32 ar
  53   28   29 ar
  54   28   54 1
  55   29   30 ar
  56   29   33 1
  57   30   31 ar
  58   30   55 1
  59   31   32 ar
  60   31   56 1
  61   32   57 1
  62   33   34 1
  63   34   58 1
  64   34   59 1
  65   34   60 1
  66   35   61 1
  67   35   62 1

#	End of record

