#	Name: ASD01148665
#	Creating user name:	WinNT
#	Creation time:	15. 06. 2019 19:03

#	Modifying user name:	WinNT
#	Modification time:	15. 06. 2019 19:03

#	Program:	/corina/corina34_cracker 3.40 0067  02.08.2006

@<TRIPOS>MOLECULE
ASD01148665
  44   46    0    0    0
SMALL
NO_CHARGES


@<TRIPOS>ATOM
   1 N1            -0.5682     1.1863    -2.1414 N.am    
   2 N2            -0.4036    -0.1300    -1.6908 N.am    
   3 C3            -1.4496    -0.7983    -1.1657 C.2     
   4 C4            -1.2763    -2.1842    -0.6912 C.ar    
   5 C5            -2.3310    -2.8456    -0.0443 C.ar    
   6 C6            -2.1560    -4.1507     0.3983 C.ar    
   7 C7            -0.9488    -4.7921     0.2014 C.ar    
   8 C8             0.0949    -4.1413    -0.4374 C.ar    
   9 C9            -0.0631    -2.8476    -0.8884 C.ar    
  10 O10           -2.5361    -0.2588    -1.0831 O.2     
  11 N11           -3.5470    -2.1968     0.1536 N.am    
  12 C12           -4.7023    -2.8279    -0.1352 C.2     
  13 O13           -4.6812    -3.9414    -0.6245 O.2     
  14 N14           -8.1739    -1.7593     0.3820 N.2     
  15 N15           -7.2326    -2.7309     0.0198 N.pl3   
  16 C16           -5.9882    -2.1705     0.1412 C.2     
  17 C17           -6.1704    -0.8720     0.5726 C.2     
  18 C18           -7.5412    -0.6594     0.7089 C.2     
  19 C19           -7.5122    -4.0366    -0.3909 C.ar    
  20 C20           -8.8307    -4.4243    -0.6052 C.ar    
  21 C21           -9.0932    -5.7219    -1.0127 C.ar    
  22 C22           -8.0239    -6.5882    -1.1918 C.ar    
  23 C23           -6.7398    -6.1345    -0.9603 C.ar    
  24 N24           -6.5199    -4.8917    -0.5777 N.ar    
  25 Cl25         -10.1294    -3.2976    -0.3648 Cl      
  26 Br26          -8.3545     0.9519     1.2729 Br      
  27 Br27           1.7412    -5.0343    -0.6988 Br      
  28 Br28          -3.5719    -5.0498     1.2718 Br      
  29 C29            0.4779     1.8546    -2.6665 C.2     
  30 O30            0.3351     2.9962    -3.0574 O.2     
  31 O31            1.6810     1.2572    -2.7579 O.3     
  32 C32            2.7620     2.0369    -3.3339 C.3     
  33 H33           -1.4359     1.6153    -2.0792 H       
  34 H34            0.4632    -0.5604    -1.7566 H       
  35 H35           -0.8172    -5.8067     0.5474 H       
  36 H36            0.7518    -2.3464    -1.3895 H       
  37 H37           -3.5626    -1.2906     0.4992 H       
  38 H38           -5.3911    -0.1505     0.7692 H       
  39 H39          -10.1067    -6.0519    -1.1867 H       
  40 H40           -8.1939    -7.6066    -1.5086 H       
  41 H41           -5.9046    -6.8052    -1.0984 H       
  42 H42            2.9243     2.9320    -2.7336 H       
  43 H43            3.6733     1.4391    -3.3487 H       
  44 H44            2.4999     2.3248    -4.3520 H       
@<TRIPOS>BOND
   1    1    2 1
   2    1   29 am
   3    1   33 1
   4    2    3 am
   5    2   34 1
   6    3    4 1
   7    3   10 2
   8    4    5 ar
   9    4    9 ar
  10    5    6 ar
  11    5   11 1
  12    6    7 ar
  13    6   28 1
  14    7    8 ar
  15    7   35 1
  16    8    9 ar
  17    8   27 1
  18    9   36 1
  19   11   12 am
  20   11   37 1
  21   12   13 2
  22   12   16 1
  23   14   15 1
  24   14   18 2
  25   15   16 1
  26   15   19 1
  27   16   17 2
  28   17   18 1
  29   17   38 1
  30   18   26 1
  31   19   20 ar
  32   19   24 ar
  33   20   21 ar
  34   20   25 1
  35   21   22 ar
  36   21   39 1
  37   22   23 ar
  38   22   40 1
  39   23   24 ar
  40   23   41 1
  41   29   30 2
  42   29   31 1
  43   31   32 1
  44   32   42 1
  45   32   43 1
  46   32   44 1

#	End of record

