#	Name: ASD06610048
#	Creating user name:	WinNT
#	Creation time:	15. 06. 2019 21:07

#	Modifying user name:	WinNT
#	Modification time:	15. 06. 2019 21:07

#	Program:	/corina/corina34_cracker 3.40 0067  02.08.2006

@<TRIPOS>MOLECULE
ASD06610048
 248  248    0    0    0
SMALL
NO_CHARGES


@<TRIPOS>ATOM
   1 C1            -3.6420    -2.1435    -7.9915 C.2     
   2 O2            -3.7983    -3.3388    -8.1246 O.2     
   3 N3            -1.3178    -2.5105    -8.5985 N.3     
   4 C4            -2.3687    -1.4926    -8.4669 C.3     
   5 C5            -2.6105    -0.8308    -9.8251 C.3     
   6 C6            -1.3560    -0.0649   -10.2498 C.3     
   7 C7            -1.5978     0.5969   -11.6079 C.3     
   8 N8            -0.3966     1.3302   -12.0146 N.pl3   
   9 C9            -0.3777     2.0096   -13.2092 C.2     
  10 N10           -1.3826     1.9097   -14.0308 N.2     
  11 N11            0.7076     2.7986   -13.5382 N.am    
  12 C12           -6.9585    -1.0081    -6.9550 C.2     
  13 O13           -6.7348     0.1345    -7.2947 O.2     
  14 N14           -4.6093    -1.3966    -7.4233 N.am    
  15 C15           -5.8496    -2.0285    -6.9666 C.3     
  16 C16           -5.6502    -2.5811    -5.5539 C.3     
  17 C17           -4.6121    -3.7046    -5.5876 C.3     
  18 C18           -4.4157    -4.2490    -4.1961 C.2     
  19 O19           -5.0418    -3.7859    -3.2723 O.2     
  20 O20           -3.5453    -5.2483    -3.9831 O.3     
  21 C21          -10.3312    -0.7886    -5.5623 C.2     
  22 O22          -10.1956    -1.8124    -4.9264 O.2     
  23 N23           -8.1988    -1.3652    -6.5670 N.am    
  24 C24           -9.2768    -0.3733    -6.5557 C.3     
  25 C25           -9.8988    -0.2800    -7.9505 C.3     
  26 C26           -8.8613     0.2609    -8.9363 C.3     
  27 C27           -9.4832     0.3542   -10.3311 C.3     
  28 C28           -8.4457     0.8952   -11.3170 C.3     
  29 N29           -9.0429     0.9847   -12.6562 N.3     
  30 C30          -13.7735     0.1803    -4.8041 C.2     
  31 O31          -13.8529     0.8807    -5.7910 O.2     
  32 N32          -11.4250    -0.0223    -5.3805 N.am    
  33 C33          -12.4500    -0.4261    -4.4148 C.3     
  34 C34          -12.0562     0.0619    -3.0192 C.3     
  35 C35          -10.7770    -0.6487    -2.5725 C.3     
  36 C36          -10.3832    -0.1607    -1.1769 C.3     
  37 N37           -9.1583    -0.8411    -0.7492 N.pl3   
  38 C38           -8.6106    -0.5621     0.4805 C.2     
  39 N39           -7.5208    -1.1674     0.8610 N.2     
  40 N40           -9.2123     0.3555     1.3088 N.pl3   
  41 C41          -17.0292     0.6600    -3.2123 C.2     
  42 O42          -16.6174     0.2938    -2.1320 O.2     
  43 N43          -14.8691    -0.0558    -4.0555 N.am    
  44 C44          -16.1558     0.5336    -4.4340 C.3     
  45 C45          -16.8452    -0.3645    -5.4631 C.3     
  46 C46          -16.0187    -0.3927    -6.7503 C.3     
  47 C47          -16.7081    -1.2908    -7.7794 C.3     
  48 N48          -15.9167    -1.3179    -9.0120 N.pl3   
  49 C49          -16.3418    -2.0641   -10.0856 C.2     
  50 N50          -15.6377    -2.0881   -11.1822 N.2     
  51 N51          -17.5096    -2.7848   -10.0025 N.pl3   
  52 C52          -20.5653     1.3075    -2.5491 C.2     
  53 O53          -20.8594     1.2172    -3.7222 O.2     
  54 N54          -18.2679     1.1800    -3.3204 N.am    
  55 C55          -19.1169     1.3028    -2.1328 C.3     
  56 C56          -18.7910     2.6090    -1.4058 C.3     
  57 O57          -19.1413     3.7172    -2.2372 O.3     
  58 C58          -23.7622     2.1295    -0.9784 C.2     
  59 O59          -23.2238     2.5885     0.0067 O.2     
  60 N60          -21.5338     1.4122    -1.6177 N.am    
  61 C61          -22.9418     1.4167    -2.0224 C.3     
  62 C62          -23.4365    -0.0242    -2.1635 C.3     
  63 C63          -26.2070     2.1908     1.0161 C.2     
  64 O64          -25.8274     1.0399     1.0651 O.2     
  65 N65          -25.0942     2.2569    -1.1394 N.am    
  66 C66          -25.8759     3.0431    -0.1817 C.3     
  67 C67          -27.1711     3.5146    -0.8459 C.3     
  68 C68          -26.8444     4.4865    -1.9503 C.2     
  69 O69          -25.7049     4.8527    -2.1153 O.2     
  70 O70          -27.8194     4.9454    -2.7507 O.3     
  71 C71          -28.7383     2.2059     3.5659 C.2     
  72 O72          -29.3167     3.1258     3.0271 O.2     
  73 N73          -26.9250     2.7074     2.0330 N.am    
  74 C74          -27.3338     1.8519     3.1499 C.3     
  75 C75          -26.3834     2.0648     4.3298 C.3     
  76 C76          -26.3107     3.5562     4.6635 C.3     
  77 C77          -27.6553     4.0184     5.2286 C.3     
  78 C78          -24.9886     1.5565     3.9593 C.3     
  79 C79          -30.8868     1.4087     6.4140 C.2     
  80 O80          -30.0092     0.7856     6.9730 O.2     
  81 N81          -29.3516     1.5004     4.5368 N.am    
  82 C82          -30.6812     1.9003     5.0043 C.3     
  83 C83          -31.7473     1.2916     4.0913 C.3     
  84 C84          -31.6182     1.8768     2.7086 C.ar    
  85 C85          -30.8012     1.2686     1.7740 C.ar    
  86 C86          -30.6828     1.8055     0.5057 C.ar    
  87 C87          -31.3817     2.9504     0.1718 C.ar    
  88 C88          -32.1994     3.5582     1.1061 C.ar    
  89 C89          -32.3212     3.0188     2.3730 C.ar    
  90 C90          -32.7408    -0.2396     8.3923 C.2     
  91 O91          -32.9093    -0.7974     7.3338 O.2     
  92 N92          -32.0460     1.6614     7.0534 N.am    
  93 C93          -32.2459     1.1835     8.4237 C.3     
  94 C94          -33.2785     2.0671     9.1265 C.3     
  95 C95          -33.3957     1.6468    10.5930 C.3     
  96 C96          -34.3339     2.6082    11.3256 C.3     
  97 C97          -34.6368     1.9087     8.4404 C.3     
  98 O98          -32.9945    -0.8875     9.5402 O.3     
  99 C99            1.6859     3.0093   -12.6353 C.2     
 100 O100           1.6586     2.4364   -11.5670 O.2     
 101 C101          17.6000    11.0930    -6.9271 C.3     
 102 C102          16.4550    10.1309    -6.6041 C.3     
 103 C103          15.4876    10.0736    -7.7880 C.3     
 104 C104          14.3427     9.1115    -7.4650 C.3     
 105 C105          13.3753     9.0542    -8.6490 C.3     
 106 C106          12.2304     8.0921    -8.3259 C.3     
 107 C107          11.2630     8.0347    -9.5099 C.3     
 108 C108          10.1180     7.0726    -9.1868 C.3     
 109 C109           9.1506     7.0153   -10.3708 C.3     
 110 C110           8.0057     6.0532   -10.0477 C.3     
 111 C111           7.0383     5.9958   -11.2317 C.3     
 112 C112           5.8933     5.0337   -10.9086 C.3     
 113 C113           4.9260     4.9764   -12.0926 C.3     
 114 C114           3.7810     4.0143   -11.7695 C.3     
 115 C115           2.8136     3.9569   -12.9535 C.3     
 116 H116          -1.0942    -2.9173    -7.7026 H       
 117 H117          -1.5847    -3.2221    -9.2621 H       
 118 H118          -2.0552    -0.7378    -7.7457 H       
 119 H119          -2.8375    -1.5964   -10.5670 H       
 120 H120          -3.4497    -0.1394    -9.7480 H       
 121 H121          -1.1291     0.7007    -9.5079 H       
 122 H122          -0.5169    -0.7563   -10.3268 H       
 123 H123          -1.8248    -0.1687   -12.3499 H       
 124 H124          -2.4370     1.2883   -11.5309 H       
 125 H125           0.3855     1.3363   -11.4408 H       
 126 H126          -1.4030     2.4449   -14.8396 H       
 127 H127           0.7656     3.2010   -14.4189 H       
 128 H128          -4.4843    -0.4406    -7.3168 H       
 129 H129          -6.1124    -2.8430    -7.6417 H       
 130 H130          -5.3014    -1.7838    -4.8977 H       
 131 H131          -6.5965    -2.9719    -5.1797 H       
 132 H132          -4.9609    -4.5020    -6.2438 H       
 133 H133          -3.6659    -3.3139    -5.9618 H       
 134 H134          -3.4535    -5.5642    -3.0737 H       
 135 H135          -8.3777    -2.2790    -6.2953 H       
 136 H136          -8.8732     0.5987    -6.2721 H       
 137 H137         -10.2227    -1.2702    -8.2708 H       
 138 H138         -10.7570     0.3913    -7.9214 H       
 139 H139          -8.5374     1.2512    -8.6160 H       
 140 H140          -8.0030    -0.4103    -8.9653 H       
 141 H141          -9.8071    -0.6360   -10.6515 H       
 142 H142         -10.3415     1.0255   -10.3021 H       
 143 H143          -8.1218     1.8854   -10.9966 H       
 144 H144          -7.5875     0.2239   -11.3460 H       
 145 H145          -9.8784     1.5502   -12.6424 H       
 146 H146          -8.3770     1.3397   -13.3260 H       
 147 H147         -11.5335     0.7965    -5.8891 H       
 148 H148         -12.5358    -1.5127    -4.4090 H       
 149 H149         -11.8838     1.1379    -3.0457 H       
 150 H150         -12.8594    -0.1601    -2.3166 H       
 151 H151         -10.9494    -1.7246    -2.5460 H       
 152 H152          -9.9738    -0.4266    -3.2751 H       
 153 H153         -10.2109     0.9153    -1.2035 H       
 154 H154         -11.1865    -0.3827    -0.4743 H       
 155 H155          -8.7338    -1.4885    -1.3337 H       
 156 H156          -7.1343    -0.9705     1.7286 H       
 157 H157         -10.0233     0.8060     1.0257 H       
 158 H158          -8.8258     0.5524     2.1765 H       
 159 H159         -14.8057    -0.6160    -3.2662 H       
 160 H160         -15.9903     1.5206    -4.8659 H       
 161 H161         -16.9308    -1.3751    -5.0639 H       
 162 H162         -17.8397     0.0266    -5.6783 H       
 163 H163         -15.9332     0.6180    -7.1494 H       
 164 H164         -15.0243    -0.7837    -6.5351 H       
 165 H165         -16.7937    -2.3015    -7.3803 H       
 166 H166         -17.7026    -0.8998    -7.9947 H       
 167 H167         -15.0928    -0.8093    -9.0706 H       
 168 H168         -15.9376    -2.6146   -11.9397 H       
 169 H169         -18.0336    -2.7669    -9.1864 H       
 170 H170         -17.8095    -3.3113   -10.7600 H       
 171 H171         -18.5973     1.4729    -4.1845 H       
 172 H172         -18.9332     0.4603    -1.4661 H       
 173 H173         -19.3580     2.6587    -0.4762 H       
 174 H174         -17.7246     2.6446    -1.1832 H       
 175 H175         -18.9616     4.5799    -1.8391 H       
 176 H176         -21.2986     1.4844    -0.6794 H       
 177 H177         -23.0435     1.9311    -2.9780 H       
 178 H178         -23.3348    -0.5385    -1.2079 H       
 179 H179         -24.4841    -0.0208    -2.4646 H       
 180 H180         -22.8431    -0.5398    -2.9186 H       
 181 H181         -25.5353     1.8281    -1.8894 H       
 182 H182         -25.2953     3.9086     0.1375 H       
 183 H183         -27.6996     2.6566    -1.2614 H       
 184 H184         -27.8017     4.0055    -0.1046 H       
 185 H185         -27.5612     5.5670    -3.4449 H       
 186 H186         -27.1711     3.6456     2.0255 H       
 187 H187         -27.2992     0.8077     2.8392 H       
 188 H188         -26.7517     1.5160     5.1966 H       
 189 H189         -25.5283     3.7252     5.4033 H       
 190 H190         -26.0835     4.1203     3.7590 H       
 191 H191         -27.9777     3.3292     6.0091 H       
 192 H192         -27.5485     5.0186     5.6484 H       
 193 H193         -28.3978     4.0367     4.4307 H       
 194 H194         -24.5702     2.1844     3.1727 H       
 195 H195         -24.3430     1.5949     4.8367 H       
 196 H196         -25.0589     0.5283     3.6047 H       
 197 H197         -28.9127     0.7279     4.9259 H       
 198 H198         -30.7621     2.9871     4.9831 H       
 199 H199         -31.6104     0.2113     4.0428 H       
 200 H200         -32.7371     1.5148     4.4894 H       
 201 H201         -30.2551     0.3741     2.0349 H       
 202 H202         -30.0439     1.3306    -0.2242 H       
 203 H203         -31.2886     3.3703    -0.8189 H       
 204 H204         -32.7452     4.4529     0.8453 H       
 205 H205         -32.9630     3.4916     3.1018 H       
 206 H206         -32.7479     2.1597     6.6063 H       
 207 H207         -31.3011     1.2276     8.9654 H       
 208 H208         -32.9628     3.1090     9.0713 H       
 209 H209         -33.7960     0.6346    10.6499 H       
 210 H210         -32.4107     1.6748    11.0589 H       
 211 H211         -35.3189     2.5802    10.8597 H       
 212 H212         -34.4174     2.3087    12.3703 H       
 213 H213         -33.9336     3.6204    11.2686 H       
 214 H214         -34.9524     0.8668     8.4956 H       
 215 H215         -35.3724     2.5382     8.9410 H       
 216 H216         -34.5532     2.2081     7.3956 H       
 217 H217         -33.3102    -1.7988     9.4694 H       
 218 H218          17.1964    12.0880    -7.1151 H       
 219 H219          18.2892    11.1339    -6.0837 H       
 220 H220          18.1300    10.7427    -7.8128 H       
 221 H221          16.8586     9.1360    -6.4161 H       
 222 H222          15.9250    10.4813    -5.7184 H       
 223 H223          15.0841    11.0685    -7.9760 H       
 224 H224          16.0177     9.7232    -8.6737 H       
 225 H225          14.7462     8.1166    -7.2770 H       
 226 H226          13.8126     9.4619    -6.5793 H       
 227 H227          12.9717    10.0491    -8.8369 H       
 228 H228          13.9054     8.7038    -9.5346 H       
 229 H229          12.6339     7.0971    -8.1379 H       
 230 H230          11.7003     8.4424    -7.4402 H       
 231 H231          10.8594     9.0296    -9.6978 H       
 232 H232          11.7930     7.6843   -10.3955 H       
 233 H233          10.5216     6.0777    -8.9988 H       
 234 H234           9.5880     7.4230    -8.3012 H       
 235 H235           8.7471     8.0102   -10.5588 H       
 236 H236           9.6807     6.6649   -11.2564 H       
 237 H237           8.4092     5.0582    -9.8597 H       
 238 H238           7.4756     6.4036    -9.1621 H       
 239 H239           6.6347     6.9908   -11.4197 H       
 240 H240           7.5684     5.6454   -12.1173 H       
 241 H241           6.2969     4.0388   -10.7206 H       
 242 H242           5.3633     5.3841   -10.0230 H       
 243 H243           4.5224     5.9713   -12.2806 H       
 244 H244           5.4560     4.6260   -12.9782 H       
 245 H245           4.1846     3.0193   -11.5816 H       
 246 H246           3.2510     4.3647   -10.8839 H       
 247 H247           3.3437     3.6065   -13.8391 H       
 248 H248           2.4101     4.9519   -13.1415 H       
@<TRIPOS>BOND
   1    1    2 2
   2    1    4 1
   3    1   14 am
   4    3    4 1
   5    3  116 1
   6    3  117 1
   7    4    5 1
   8    4  118 1
   9    5    6 1
  10    5  119 1
  11    5  120 1
  12    6    7 1
  13    6  121 1
  14    6  122 1
  15    7    8 1
  16    7  123 1
  17    7  124 1
  18    8    9 1
  19    8  125 1
  20    9   10 2
  21    9   11 1
  22   10  126 1
  23   11   99 am
  24   11  127 1
  25   12   13 2
  26   12   15 1
  27   12   23 am
  28   14   15 1
  29   14  128 1
  30   15   16 1
  31   15  129 1
  32   16   17 1
  33   16  130 1
  34   16  131 1
  35   17   18 1
  36   17  132 1
  37   17  133 1
  38   18   19 2
  39   18   20 1
  40   20  134 1
  41   21   22 2
  42   21   24 1
  43   21   32 am
  44   23   24 1
  45   23  135 1
  46   24   25 1
  47   24  136 1
  48   25   26 1
  49   25  137 1
  50   25  138 1
  51   26   27 1
  52   26  139 1
  53   26  140 1
  54   27   28 1
  55   27  141 1
  56   27  142 1
  57   28   29 1
  58   28  143 1
  59   28  144 1
  60   29  145 1
  61   29  146 1
  62   30   31 2
  63   30   33 1
  64   30   43 am
  65   32   33 1
  66   32  147 1
  67   33   34 1
  68   33  148 1
  69   34   35 1
  70   34  149 1
  71   34  150 1
  72   35   36 1
  73   35  151 1
  74   35  152 1
  75   36   37 1
  76   36  153 1
  77   36  154 1
  78   37   38 1
  79   37  155 1
  80   38   39 2
  81   38   40 1
  82   39  156 1
  83   40  157 1
  84   40  158 1
  85   41   42 2
  86   41   44 1
  87   41   54 am
  88   43   44 1
  89   43  159 1
  90   44   45 1
  91   44  160 1
  92   45   46 1
  93   45  161 1
  94   45  162 1
  95   46   47 1
  96   46  163 1
  97   46  164 1
  98   47   48 1
  99   47  165 1
 100   47  166 1
 101   48   49 1
 102   48  167 1
 103   49   50 2
 104   49   51 1
 105   50  168 1
 106   51  169 1
 107   51  170 1
 108   52   53 2
 109   52   55 1
 110   52   60 am
 111   54   55 1
 112   54  171 1
 113   55   56 1
 114   55  172 1
 115   56   57 1
 116   56  173 1
 117   56  174 1
 118   57  175 1
 119   58   59 2
 120   58   61 1
 121   58   65 am
 122   60   61 1
 123   60  176 1
 124   61   62 1
 125   61  177 1
 126   62  178 1
 127   62  179 1
 128   62  180 1
 129   63   64 2
 130   63   66 1
 131   63   73 am
 132   65   66 1
 133   65  181 1
 134   66   67 1
 135   66  182 1
 136   67   68 1
 137   67  183 1
 138   67  184 1
 139   68   69 2
 140   68   70 1
 141   70  185 1
 142   71   72 2
 143   71   74 1
 144   71   81 am
 145   73   74 1
 146   73  186 1
 147   74   75 1
 148   74  187 1
 149   75   76 1
 150   75   78 1
 151   75  188 1
 152   76   77 1
 153   76  189 1
 154   76  190 1
 155   77  191 1
 156   77  192 1
 157   77  193 1
 158   78  194 1
 159   78  195 1
 160   78  196 1
 161   79   80 2
 162   79   82 1
 163   79   92 am
 164   81   82 1
 165   81  197 1
 166   82   83 1
 167   82  198 1
 168   83   84 1
 169   83  199 1
 170   83  200 1
 171   84   85 ar
 172   84   89 ar
 173   85   86 ar
 174   85  201 1
 175   86   87 ar
 176   86  202 1
 177   87   88 ar
 178   87  203 1
 179   88   89 ar
 180   88  204 1
 181   89  205 1
 182   90   91 2
 183   90   93 1
 184   90   98 1
 185   92   93 1
 186   92  206 1
 187   93   94 1
 188   93  207 1
 189   94   95 1
 190   94   97 1
 191   94  208 1
 192   95   96 1
 193   95  209 1
 194   95  210 1
 195   96  211 1
 196   96  212 1
 197   96  213 1
 198   97  214 1
 199   97  215 1
 200   97  216 1
 201   98  217 1
 202   99  100 2
 203   99  115 1
 204  101  102 1
 205  101  218 1
 206  101  219 1
 207  101  220 1
 208  102  103 1
 209  102  221 1
 210  102  222 1
 211  103  104 1
 212  103  223 1
 213  103  224 1
 214  104  105 1
 215  104  225 1
 216  104  226 1
 217  105  106 1
 218  105  227 1
 219  105  228 1
 220  106  107 1
 221  106  229 1
 222  106  230 1
 223  107  108 1
 224  107  231 1
 225  107  232 1
 226  108  109 1
 227  108  233 1
 228  108  234 1
 229  109  110 1
 230  109  235 1
 231  109  236 1
 232  110  111 1
 233  110  237 1
 234  110  238 1
 235  111  112 1
 236  111  239 1
 237  111  240 1
 238  112  113 1
 239  112  241 1
 240  112  242 1
 241  113  114 1
 242  113  243 1
 243  113  244 1
 244  114  115 1
 245  114  245 1
 246  114  246 1
 247  115  247 1
 248  115  248 1

#	End of record

