#	Name: ASD01208251
#	Creating user name:	WinNT
#	Creation time:	15. 06. 2019 19:09

#	Modifying user name:	WinNT
#	Modification time:	15. 06. 2019 19:09

#	Program:	/corina/corina34_cracker 3.40 0067  02.08.2006

@<TRIPOS>MOLECULE
ASD01208251
  61   65    0    0    0
SMALL
NO_CHARGES


@<TRIPOS>ATOM
   1 C1            -1.3380     2.1920    -2.5610 C.ar    
   2 C2            -1.2054     0.9262    -3.1244 C.ar    
   3 C3            -1.6571     0.7094    -4.4097 C.ar    
   4 C4            -2.2366     1.7830    -5.1023 C.ar    
   5 C5            -2.3341     3.0228    -4.4694 C.ar    
   6 N6            -1.8898     3.1855    -3.2409 N.ar    
   7 O7            -0.9013     2.4094    -1.2970 O.3     
   8 C8            -0.9711     3.6750    -0.8067 C.ar    
   9 C9             0.1845     4.4329    -0.6775 C.ar    
  10 C10            0.1190     5.7255    -0.1780 C.ar    
  11 C11           -1.1011     6.2651     0.1946 C.ar    
  12 C12           -2.2655     5.5067     0.0665 C.ar    
  13 C13           -2.1958     4.2086    -0.4419 C.ar    
  14 N14           -4.7803     5.4409     0.3869 N.pl3   
  15 C15           -3.5693     6.0783     0.4626 C.2     
  16 C16           -3.7720     7.3306     0.9670 C.2     
  17 C17           -5.1405     7.4755     1.2106 C.2     
  18 C18           -5.7522     6.2961     0.8461 C.2     
  19 S19           -8.4254     7.1134     1.5247 S.3     
  20 C20           -7.1911     6.0045     0.9328 C.2     
  21 N21           -7.7592     4.8827     0.5829 N.2     
  22 C22           -9.0616     4.8033     0.7310 C.2     
  23 C23           -9.6598     5.8910     1.2277 C.2     
  24 O24            1.2536     6.4632    -0.0537 O.3     
  25 C25            2.4898     5.8049    -0.3374 C.3     
  26 C26            3.6231     6.4995     0.4202 C.3     
  27 C27            2.7677     5.8676    -1.8407 C.3     
  28 O28            3.7813     7.8306    -0.0749 O.3     
  29 C29            4.8202     8.5707     0.5692 C.3     
  30 C30           -2.7353     1.6040    -6.4800 C.2     
  31 O31           -3.1213     2.5652    -7.1166 O.2     
  32 N32           -2.7628     0.3749    -7.0323 N.am    
  33 C33           -3.1628    -0.1953    -8.3276 C.3     
  34 C34           -3.4514    -1.5139    -7.5968 C.3     
  35 C35           -2.3999    -0.9855    -6.6072 C.3     
  36 H36           -0.7536     0.1227    -2.5616 H       
  37 H37           -1.5666    -0.2627    -4.8715 H       
  38 H38           -2.7782     3.8568    -4.9924 H       
  39 H39            1.1376     4.0149    -0.9664 H       
  40 H40           -1.1510     7.2712     0.5840 H       
  41 H41           -3.0951     3.6199    -0.5469 H       
  42 H42           -4.9268     4.5394     0.0602 H       
  43 H43           -3.0111     8.0759     1.1458 H       
  44 H44           -5.6289     8.3513     1.6118 H       
  45 H45           -9.6154     3.9143     0.4676 H       
  46 H46          -10.7176     6.0013     1.4152 H       
  47 H47            2.4273     4.7632    -0.0227 H       
  48 H48            3.3826     6.5333     1.4828 H       
  49 H49            4.5504     5.9452     0.2750 H       
  50 H50            3.7106     5.3655    -2.0571 H       
  51 H51            1.9603     5.3728    -2.3804 H       
  52 H52            2.8302     6.9093    -2.1554 H       
  53 H53            5.7723     8.0594     0.4271 H       
  54 H54            4.8762     9.5698     0.1370 H       
  55 H55            4.6045     8.6475     1.6349 H       
  56 H56           -4.0529     0.2704    -8.7506 H       
  57 H57           -2.3431    -0.2657    -9.0426 H       
  58 H58           -4.4588    -1.5866    -7.1870 H       
  59 H59           -3.1405    -2.4047    -8.1426 H       
  60 H60           -1.3791    -1.2641    -6.8686 H       
  61 H61           -2.6401    -1.1929    -5.5644 H       
@<TRIPOS>BOND
   1    1    2 ar
   2    1    6 ar
   3    1    7 1
   4    2    3 ar
   5    2   36 1
   6    3    4 ar
   7    3   37 1
   8    4    5 ar
   9    4   30 1
  10    5    6 ar
  11    5   38 1
  12    7    8 1
  13    8    9 ar
  14    8   13 ar
  15    9   10 ar
  16    9   39 1
  17   10   11 ar
  18   10   24 1
  19   11   12 ar
  20   11   40 1
  21   12   13 ar
  22   12   15 1
  23   13   41 1
  24   14   15 1
  25   14   18 1
  26   14   42 1
  27   15   16 2
  28   16   17 1
  29   16   43 1
  30   17   18 2
  31   17   44 1
  32   18   20 1
  33   19   20 1
  34   19   23 1
  35   20   21 2
  36   21   22 1
  37   22   23 2
  38   22   45 1
  39   23   46 1
  40   24   25 1
  41   25   26 1
  42   25   27 1
  43   25   47 1
  44   26   28 1
  45   26   48 1
  46   26   49 1
  47   27   50 1
  48   27   51 1
  49   27   52 1
  50   28   29 1
  51   29   53 1
  52   29   54 1
  53   29   55 1
  54   30   31 2
  55   30   32 am
  56   32   33 1
  57   32   35 1
  58   33   34 1
  59   33   56 1
  60   33   57 1
  61   34   35 1
  62   34   58 1
  63   34   59 1
  64   35   60 1
  65   35   61 1

#	End of record

