#	Name: ASD01917729
#	Creating user name:	WinNT
#	Creation time:	15. 06. 2019 20:09

#	Modifying user name:	WinNT
#	Modification time:	15. 06. 2019 20:09

#	Program:	/corina/corina34_cracker 3.40 0067  02.08.2006

@<TRIPOS>MOLECULE
ASD01917729
  39   42    0    0    0
SMALL
NO_CHARGES


@<TRIPOS>ATOM
   1 C1            -0.0140     1.4936     0.0246 C.3     
   2 C2             0.0205    -0.0167     0.0083 C.2     
   3 C3             2.4651    -0.1848    -0.4927 C.3     
   4 C4             2.3200     1.2814    -0.9140 C.3     
   5 N5             1.3859     1.9574    -0.0009 N.am    
   6 C6            -1.0012    -0.8652     0.2170 C.2     
   7 C7            -0.5001    -2.1781     0.0957 C.2     
   8 N8             0.7873    -2.0984    -0.1758 N.2     
   9 N9             1.1365    -0.7462    -0.2308 N.pl3   
  10 C10            1.7964     2.9700     0.7881 C.2     
  11 O11            2.9744     3.2666     0.8326 O.2     
  12 C12            0.8140     3.7199     1.5996 C.ar    
  13 C13            1.1700     4.2042     2.8594 C.ar    
  14 C14           -0.4706     3.9513     1.1066 C.ar    
  15 C15           -1.3843     4.6535     1.8698 C.ar    
  16 C16           -1.0262     5.1268     3.1215 C.ar    
  17 C17            0.2489     4.9043     3.6129 C.ar    
  18 C18           -1.2838    -3.4285     0.2474 C.ar    
  19 C19           -0.6520    -4.6616     0.0993 C.ar    
  20 C20           -1.3949    -5.8198     0.2433 C.ar    
  21 C21           -2.7499    -5.7069     0.5318 C.ar    
  22 C22           -3.3121    -4.4485     0.6655 C.ar    
  23 N23           -2.5785    -3.3626     0.5281 N.ar    
  24 F24           -3.5106    -6.8134     0.6798 F       
  25 Cl25           0.6907     5.5070     5.1798 Cl      
  26 F26           -2.6285     4.8790     1.3941 F       
  27 H27           -0.5441     1.8630    -0.8532 H       
  28 H28           -0.5054     1.8445     0.9321 H       
  29 H29            2.9468    -0.7474    -1.2924 H       
  30 H30            3.0705    -0.2455     0.4117 H       
  31 H31            3.2927     1.7713    -0.8682 H       
  32 H32            1.9340     1.3312    -1.9322 H       
  33 H33           -2.0222    -0.5908     0.4379 H       
  34 H34            2.1641     4.0312     3.2443 H       
  35 H35           -0.7502     3.5829     0.1307 H       
  36 H36           -1.7432     5.6750     3.7146 H       
  37 H37            0.4032    -4.7125    -0.1253 H       
  38 H38           -0.9325    -6.7896     0.1338 H       
  39 H39           -4.3646    -4.3560     0.8892 H       
@<TRIPOS>BOND
   1    1    2 1
   2    1    5 1
   3    1   27 1
   4    1   28 1
   5    2    6 2
   6    2    9 1
   7    3    4 1
   8    3    9 1
   9    3   29 1
  10    3   30 1
  11    4    5 1
  12    4   31 1
  13    4   32 1
  14    5   10 am
  15    6    7 1
  16    6   33 1
  17    7    8 2
  18    7   18 1
  19    8    9 1
  20   10   11 2
  21   10   12 1
  22   12   14 ar
  23   12   13 ar
  24   13   17 ar
  25   13   34 1
  26   14   15 ar
  27   14   35 1
  28   15   16 ar
  29   15   26 1
  30   16   17 ar
  31   16   36 1
  32   17   25 1
  33   18   19 ar
  34   18   23 ar
  35   19   20 ar
  36   19   37 1
  37   20   21 ar
  38   20   38 1
  39   21   22 ar
  40   21   24 1
  41   22   23 ar
  42   22   39 1

#	End of record

