#	Name: ASD09116062
#	Creating user name:	WinNT
#	Creation time:	15. 06. 2019 21:20

#	Modifying user name:	WinNT
#	Modification time:	15. 06. 2019 21:20

#	Program:	/corina/corina34_cracker 3.40 0067  02.08.2006

@<TRIPOS>MOLECULE
ASD09116062
  76   81    0    0    0
SMALL
NO_CHARGES


@<TRIPOS>ATOM
   1 C1            -0.3501     1.2190     1.5365 C.ar    
   2 N2            -0.2735    -0.1440     1.2618 N.pl3   
   3 N3            -1.2427    -0.9287     0.6161 N.2     
   4 C4            -0.7722    -2.1513     0.5621 C.2     
   5 N5             0.4364    -2.1826     1.1359 N.2     
   6 C6             0.7575    -0.9793     1.5602 C.2     
   7 N7             1.9295    -0.6285     2.2016 N.pl3   
   8 N8            -1.4274    -3.2452    -0.0027 N.pl3   
   9 N9             0.6599     1.8085     2.1567 N.ar    
  10 N10           -1.4316     1.8927     1.1644 N.ar    
  11 C11           -1.5245     3.1801     1.4159 C.ar    
  12 C12           -0.4814     3.8333     2.0588 C.ar    
  13 C13            0.6301     3.1052     2.4315 C.ar    
  14 C14           -2.7344     3.9980     1.0532 C.3     
  15 C15           -2.5572     4.7317    -0.2376 C.3     
  16 C16           -1.7334     6.0044    -0.2329 C.3     
  17 C17           -0.2327     5.6727    -0.1437 C.3     
  18 C18            0.2535     6.0571     1.2816 C.3     
  19 C19           -0.5956     5.3106     2.3093 C.3     
  20 C20           -0.7696    -4.4769    -0.1090 C.ar    
  21 C21           -1.4944    -5.6593    -0.0393 C.ar    
  22 C22           -0.8451    -6.8745    -0.1447 C.ar    
  23 C23            0.5327    -6.9127    -0.3204 C.ar    
  24 C24            1.2566    -5.7300    -0.3900 C.ar    
  25 C25            0.6069    -4.5156    -0.2900 C.ar    
  26 N26            1.1912    -8.1441    -0.4268 N.3     
  27 C27            1.1278    -8.8864     0.8399 C.3     
  28 C28            1.7874   -10.2557     0.6592 C.3     
  29 N29            3.1805   -10.0724     0.2287 N.3     
  30 C30            3.2439    -9.3301    -1.0380 C.3     
  31 C31            2.5843    -7.9609    -0.8574 C.3     
  32 C32            3.8712   -11.3641     0.1171 C.3     
  33 C33            5.2748   -11.1444    -0.4509 C.3     
  34 C34            5.9943   -12.4897    -0.5671 C.3     
  35 C35            6.0991   -13.1333     0.8170 C.3     
  36 C36            4.6955   -13.3529     1.3849 C.3     
  37 C37            3.9761   -12.0077     1.5012 C.3     
  38 Cl38          -1.7506    -8.3531    -0.0571 Cl      
  39 H39            2.6067    -1.3006     2.3763 H       
  40 H40            2.0753     0.2900     2.4774 H       
  41 H41           -2.3387    -3.1529    -0.3219 H       
  42 H42            1.4560     3.5805     2.9396 H       
  43 H43           -3.5960     3.3357     0.9678 H       
  44 H44           -2.9237     4.7203     1.8472 H       
  45 H45           -2.1000     4.0441    -0.9491 H       
  46 H46           -3.5487     4.9806    -0.6158 H       
  47 H47           -1.9256     6.5616    -1.1498 H       
  48 H48           -2.0190     6.6155     0.6233 H       
  49 H49           -0.0795     4.6066    -0.3112 H       
  50 H50            0.3175     6.2472    -0.8890 H       
  51 H51            1.3001     5.7758     1.3989 H       
  52 H52            0.1433     7.1316     1.4279 H       
  53 H53           -1.6372     5.6173     2.2137 H       
  54 H54           -0.2375     5.5390     3.3132 H       
  55 H55           -2.5652    -5.6291     0.0976 H       
  56 H56            2.3276    -5.7597    -0.5263 H       
  57 H57            1.1703    -3.5958    -0.3445 H       
  58 H58            1.6537    -8.3288     1.6149 H       
  59 H59            0.0860    -9.0203     1.1312 H       
  60 H60            1.7674   -10.7966     1.6053 H       
  61 H61            1.2450   -10.8238    -0.0965 H       
  62 H62            4.2857    -9.1963    -1.3293 H       
  63 H63            2.7180    -9.8877    -1.8130 H       
  64 H64            2.6044    -7.4199    -1.8035 H       
  65 H65            3.1268    -7.3928    -0.1017 H       
  66 H66            3.3091   -12.0205    -0.5472 H       
  67 H67            5.2002   -10.6859    -1.4369 H       
  68 H68            5.8370   -10.4880     0.2134 H       
  69 H69            5.4322   -13.1461    -1.2314 H       
  70 H70            6.9942   -12.3332    -0.9717 H       
  71 H71            6.6116   -14.0917     0.7341 H       
  72 H72            6.6612   -12.4769     1.4812 H       
  73 H73            4.1334   -14.0094     0.7206 H       
  74 H74            4.7702   -13.8114     2.3710 H       
  75 H75            4.5382   -11.3512     2.1654 H       
  76 H76            2.9761   -12.1641     1.9058 H       
@<TRIPOS>BOND
   1    1    2 1
   2    1    9 ar
   3    1   10 ar
   4    2    3 1
   5    2    6 1
   6    3    4 2
   7    4    5 1
   8    4    8 1
   9    5    6 2
  10    6    7 1
  11    7   39 1
  12    7   40 1
  13    8   20 1
  14    8   41 1
  15    9   13 ar
  16   10   11 ar
  17   11   12 ar
  18   11   14 1
  19   12   13 ar
  20   12   19 1
  21   13   42 1
  22   14   15 1
  23   14   43 1
  24   14   44 1
  25   15   16 1
  26   15   45 1
  27   15   46 1
  28   16   17 1
  29   16   47 1
  30   16   48 1
  31   17   18 1
  32   17   49 1
  33   17   50 1
  34   18   19 1
  35   18   51 1
  36   18   52 1
  37   19   53 1
  38   19   54 1
  39   20   21 ar
  40   20   25 ar
  41   21   22 ar
  42   21   55 1
  43   22   23 ar
  44   22   38 1
  45   23   24 ar
  46   23   26 1
  47   24   25 ar
  48   24   56 1
  49   25   57 1
  50   26   27 1
  51   26   31 1
  52   27   28 1
  53   27   58 1
  54   27   59 1
  55   28   29 1
  56   28   60 1
  57   28   61 1
  58   29   30 1
  59   29   32 1
  60   30   31 1
  61   30   62 1
  62   30   63 1
  63   31   64 1
  64   31   65 1
  65   32   33 1
  66   32   37 1
  67   32   66 1
  68   33   34 1
  69   33   67 1
  70   33   68 1
  71   34   35 1
  72   34   69 1
  73   34   70 1
  74   35   36 1
  75   35   71 1
  76   35   72 1
  77   36   37 1
  78   36   73 1
  79   36   74 1
  80   37   75 1
  81   37   76 1

#	End of record

