#	Name: ASD00844831
#	Creating user name:	WinNT
#	Creation time:	15. 06. 2019 18:51

#	Modifying user name:	WinNT
#	Modification time:	15. 06. 2019 18:51

#	Program:	/corina/corina34_cracker 3.40 0067  02.08.2006

@<TRIPOS>MOLECULE
ASD00844831
  91   96    0    0    0
SMALL
NO_CHARGES


@<TRIPOS>ATOM
   1 F1             5.6887    -2.1731    -1.9725 F       
   2 C2             0.7229     1.2448    -0.3978 C.ar    
   3 C3             0.9711    -0.0938    -0.6632 C.ar    
   4 C4             0.8518    -1.0335     0.3507 C.ar    
   5 C5             0.4862    -0.6340     1.6214 C.ar    
   6 C6             0.2388     0.7012     1.8833 C.ar    
   7 C7             0.3575     1.6393     0.8749 C.ar    
   8 C8             1.1203    -2.4887     0.0657 C.3     
   9 C9             0.7964    -3.3351     1.2784 C.2     
  10 C10            0.3096    -2.9548    -1.1452 C.3     
  11 C11           -1.1512    -2.6660    -0.9131 C.2     
  12 N12           -2.0710    -3.0859    -1.8042 N.am    
  13 O13           -1.4990    -2.0557     0.0756 O.2     
  14 C14           -3.4844    -2.7144    -1.6525 C.3     
  15 C15           -4.3343    -3.9888    -1.6752 C.3     
  16 C16           -4.0256    -4.7804    -2.9481 C.3     
  17 C17           -2.5494    -5.1842    -2.9543 C.3     
  18 C18           -1.6784    -3.9187    -2.9492 C.3     
  19 C19           -4.8978    -6.0367    -2.9911 C.3     
  20 C20           -6.3752    -5.6343    -2.9866 C.3     
  21 C21           -7.2416    -6.8915    -3.0912 C.3     
  22 N22           -6.9154    -7.6107    -4.3293 N.3     
  23 C23           -5.5137    -8.0485    -4.3355 C.3     
  24 C24           -4.5958    -6.8258    -4.2680 C.3     
  25 C25           -7.8230    -8.7478    -4.5322 C.3     
  26 O26           -0.2881    -3.4473     1.8097 O.2     
  27 N27            1.9359    -3.9394     1.6550 N.am    
  28 C28            2.5966    -2.7202    -0.1609 C.ar    
  29 C29            3.0112    -3.5999     0.8313 C.ar    
  30 C30            3.4855    -2.2425    -1.0972 C.ar    
  31 C31            4.8127    -2.6397    -1.0560 C.ar    
  32 C32            5.2380    -3.5167    -0.0710 C.ar    
  33 C33            4.3463    -3.9958     0.8681 C.ar    
  34 Cl34           6.8999    -4.0155    -0.0175 Cl      
  35 C35            1.7303    -6.5941     2.3512 C.ar    
  36 C36            2.7708    -7.3809     1.8940 C.ar    
  37 C37            0.4382    -7.0852     2.3456 C.ar    
  38 C38            0.1866    -8.3633     1.8828 C.ar    
  39 C39            1.2270    -9.1500     1.4252 C.ar    
  40 C40            2.5192    -8.6588     1.4308 C.ar    
  41 H41            1.0305   -10.1485     1.0637 H       
  42 H42            3.7803    -6.9972     1.8984 H       
  43 C43           -7.5342    -9.3951    -5.8881 C.3     
  44 C44           -7.6086    -9.7763    -3.4200 C.3     
  45 O45            1.3302    -0.4844    -1.9143 O.3     
  46 C46            1.3555     0.5239    -2.9266 C.3     
  47 C47            1.8633    -0.0813    -4.2368 C.3     
  48 F48            3.1176    -0.6641    -4.0260 F       
  49 F49            0.9639    -1.0574    -4.6791 F       
  50 S50            2.0520    -4.9677     2.9479 S.o2    
  51 O51            3.4139    -4.9509     3.3529 O.2     
  52 O52            0.9780    -4.6401     3.8188 O.2     
  53 H53            0.8194     1.9787    -1.1843 H       
  54 H54            0.3932    -1.3650     2.4109 H       
  55 H55           -0.0476     1.0114     2.8774 H       
  56 H56            0.1637     2.6814     1.0820 H       
  57 H57            0.6480    -2.4240    -2.0351 H       
  58 H58            0.4502    -4.0265    -1.2859 H       
  59 H59           -3.6265    -2.1973    -0.7035 H       
  60 H60           -3.7811    -2.0626    -2.4742 H       
  61 H61           -4.1000    -4.5979    -0.8021 H       
  62 H62           -5.3909    -3.7217    -1.6602 H       
  63 H63           -4.2366    -4.1620    -3.8205 H       
  64 H64           -2.3320    -5.7820    -2.0692 H       
  65 H65           -2.3357    -5.7679    -3.8497 H       
  66 H66           -1.8292    -3.3676    -3.8775 H       
  67 H67           -0.6291    -4.1977    -2.8538 H       
  68 H68           -4.6865    -6.6569    -2.1200 H       
  69 H69           -6.6064    -5.1091    -2.0599 H       
  70 H70           -6.5771    -4.9815    -3.8358 H       
  71 H71           -7.0492    -7.5374    -2.2345 H       
  72 H72           -8.2938    -6.6075    -3.1026 H       
  73 H73           -5.3295    -8.6890    -3.4730 H       
  74 H74           -5.3111    -8.6047    -5.2507 H       
  75 H75           -4.7697    -6.1918    -5.1374 H       
  76 H76           -3.5557    -7.1518    -4.2569 H       
  77 H77           -8.8550    -8.3976    -4.5093 H       
  78 H78            3.1491    -1.5595    -1.8632 H       
  79 H79            4.6847    -4.6791     1.6329 H       
  80 H80           -0.3747    -6.4706     2.7031 H       
  81 H81           -0.8229    -8.7473     1.8791 H       
  82 H82            3.3321    -9.2736     1.0737 H       
  83 H83           -6.5022    -9.7453    -5.9111 H       
  84 H84           -8.2076   -10.2389    -6.0387 H       
  85 H85           -7.6869    -8.6624    -6.6805 H       
  86 H86           -6.5766   -10.1265    -3.4430 H       
  87 H87           -7.8143    -9.3152    -2.4541 H       
  88 H88           -8.2820   -10.6201    -3.5706 H       
  89 H89            0.3493     0.9164    -3.0736 H       
  90 H90            2.0192     1.3317    -2.6182 H       
  91 H91            1.9486     0.7020    -4.9899 H       
@<TRIPOS>BOND
   1    1   31 1
   2    2    3 ar
   3    2    7 ar
   4    2   53 1
   5    3    4 ar
   6    3   45 1
   7    4    5 ar
   8    4    8 1
   9    5    6 ar
  10    5   54 1
  11    6    7 ar
  12    6   55 1
  13    7   56 1
  14    8    9 1
  15    8   10 1
  16    8   28 1
  17    9   26 2
  18    9   27 am
  19   10   11 1
  20   10   57 1
  21   10   58 1
  22   11   12 am
  23   11   13 2
  24   12   14 1
  25   12   18 1
  26   14   15 1
  27   14   59 1
  28   14   60 1
  29   15   16 1
  30   15   61 1
  31   15   62 1
  32   16   17 1
  33   16   19 1
  34   16   63 1
  35   17   18 1
  36   17   64 1
  37   17   65 1
  38   18   66 1
  39   18   67 1
  40   19   20 1
  41   19   24 1
  42   19   68 1
  43   20   21 1
  44   20   69 1
  45   20   70 1
  46   21   22 1
  47   21   71 1
  48   21   72 1
  49   22   23 1
  50   22   25 1
  51   23   24 1
  52   23   73 1
  53   23   74 1
  54   24   75 1
  55   24   76 1
  56   25   43 1
  57   25   44 1
  58   25   77 1
  59   27   50 am
  60   27   29 1
  61   28   29 ar
  62   28   30 ar
  63   29   33 ar
  64   30   31 ar
  65   30   78 1
  66   31   32 ar
  67   32   33 ar
  68   32   34 1
  69   33   79 1
  70   35   36 ar
  71   35   37 ar
  72   35   50 1
  73   36   42 1
  74   36   40 ar
  75   37   38 ar
  76   37   80 1
  77   38   39 ar
  78   38   81 1
  79   39   40 ar
  80   39   41 1
  81   40   82 1
  82   43   83 1
  83   43   84 1
  84   43   85 1
  85   44   86 1
  86   44   87 1
  87   44   88 1
  88   45   46 1
  89   46   47 1
  90   46   89 1
  91   46   90 1
  92   47   48 1
  93   47   49 1
  94   47   91 1
  95   50   51 2
  96   50   52 2

#	End of record

