#	Name: ASD01330003
#	Creating user name:	WinNT
#	Creation time:	15. 06. 2019 19:16

#	Modifying user name:	WinNT
#	Modification time:	15. 06. 2019 19:16

#	Program:	/corina/corina34_cracker 3.40 0067  02.08.2006

@<TRIPOS>MOLECULE
ASD01330003
   1    0    0    0    0
SMALL
NO_CHARGES


@<TRIPOS>ATOM
   1 I1             0.0000     0.0000     0.0000 I       
@<TRIPOS>BOND

#	End of record

