#	Name: ASD00200001
#	Creating user name:	WinNT
#	Creation time:	15. 06. 2019 18:33

#	Modifying user name:	WinNT
#	Modification time:	15. 06. 2019 18:33

#	Program:	/corina/corina34_cracker 3.40 0067  02.08.2006

@<TRIPOS>MOLECULE
ASD00200001
  34   34    0    0    0
SMALL
NO_CHARGES


@<TRIPOS>ATOM
   1 C1            -0.0189     1.5439     0.0105 C.3     
   2 C2             0.0021    -0.0041     0.0020 C.3     
   3 C3             1.4275    -0.3124     0.5270 C.3     
   4 O4             2.2363     0.7275    -0.0640 O.3     
   5 C5             1.4698     1.9419    -0.0015 C.3     
   6 C6             1.8136     2.7089     1.2769 C.3     
   7 O7             3.1951     3.0735     1.2566 O.3     
   8 O8             1.7471     2.7510    -1.1463 O.3     
   9 O9            -0.6792     2.0415    -1.1550 O.3     
  10 C10            1.8904    -1.6909     0.0512 C.3     
  11 O11            3.1544    -1.9990     0.6422 O.3     
  12 P12            3.9032     3.8935     2.4476 P.3     
  13 P13            3.9411    -3.3755     0.3621 P.3     
  14 O14            5.4814     4.0129     2.1526 O.3     
  15 O15            3.2615     5.3671     2.5400 O.3     
  16 O16            3.6932     3.1827     3.7286 O.2     
  17 O17            5.3801    -3.3275     1.0826 O.3     
  18 O18            3.0887    -4.6095     0.9477 O.3     
  19 O19            4.1250    -3.5508    -1.0959 O.2     
  20 O20           -0.9912    -0.5324     0.8831 O.3     
  21 H21           -0.5054     1.9139     0.9130 H       
  22 H22           -0.1320    -0.3893    -1.0088 H       
  23 H23            1.4576    -0.2505     1.6148 H       
  24 H24            1.2012     3.6087     1.3365 H       
  25 H25            1.6171     2.0776     2.1434 H       
  26 H26            2.6690     3.0354    -1.2129 H       
  27 H27           -1.6048     1.7716    -1.2281 H       
  28 H28            1.1581    -2.4421     0.3472 H       
  29 H29            1.9882    -1.6867    -1.0343 H       
  30 H30            5.9729     4.4961     2.8308 H       
  31 H31            3.3622     5.8912     1.7336 H       
  32 H32            5.9103    -4.1261     0.9558 H       
  33 H33            2.9294    -4.5606     1.9002 H       
  34 H34           -1.8966    -0.2893     0.6460 H       
@<TRIPOS>BOND
   1    1    2 1
   2    1    5 1
   3    1    9 1
   4    1   21 1
   5    2    3 1
   6    2   20 1
   7    2   22 1
   8    3    4 1
   9    3   10 1
  10    3   23 1
  11    4    5 1
  12    5    6 1
  13    5    8 1
  14    6    7 1
  15    6   24 1
  16    6   25 1
  17    7   12 1
  18    8   26 1
  19    9   27 1
  20   10   11 1
  21   10   28 1
  22   10   29 1
  23   11   13 1
  24   12   14 1
  25   12   15 1
  26   12   16 2
  27   13   17 1
  28   13   18 1
  29   13   19 2
  30   14   30 1
  31   15   31 1
  32   17   32 1
  33   18   33 1
  34   20   34 1

#	End of record

