#	Name: ASD08178518
#	Creating user name:	WinNT
#	Creation time:	15. 06. 2019 21:19

#	Modifying user name:	WinNT
#	Modification time:	15. 06. 2019 21:19

#	Program:	/corina/corina34_cracker 3.40 0067  02.08.2006

@<TRIPOS>MOLECULE
ASD08178518
  27   28    0    0    0
SMALL
NO_CHARGES


@<TRIPOS>ATOM
   1 C1             2.3930     1.3207    -0.0131 C.ar    
   2 C2             2.3040    -0.0624    -0.0152 C.ar    
   3 C3             1.2058     2.0511     0.0050 C.ar    
   4 N4             0.0442     1.4155     0.0195 N.ar    
   5 N5            -0.0321     0.1343     0.0175 N.ar    
   6 C6             1.0391    -0.6347     0.0009 C.ar    
   7 I7             0.8323    -2.7195    -0.0019 I       
   8 N8             1.2413     3.4453     0.0082 N.am    
   9 C9             0.0950     4.1488    -0.0792 C.2     
  10 O10           -0.9579     3.5731    -0.2548 O.2     
  11 C11            0.1217     5.6507     0.0412 C.3     
  12 C12           -1.2793     6.1902    -0.0907 C.ar    
  13 C13           -2.0689     6.3452     1.0333 C.ar    
  14 C14           -1.7728     6.5352    -1.3350 C.ar    
  15 C15           -3.0578     7.0301    -1.4559 C.ar    
  16 C16           -3.8496     7.1794    -0.3327 C.ar    
  17 C17           -3.3540     6.8400     0.9124 C.ar    
  18 H18            3.3522     1.8170    -0.0208 H       
  19 H19            3.1921    -0.6767    -0.0293 H       
  20 H20            2.0910     3.9087     0.0735 H       
  21 H21            0.5286     5.9301     1.0130 H       
  22 H22            0.7473     6.0675    -0.7481 H       
  23 H23           -1.6819     6.0795     2.0060 H       
  24 H24           -1.1542     6.4186    -2.2126 H       
  25 H25           -3.4431     7.3003    -2.4280 H       
  26 H26           -4.8534     7.5663    -0.4271 H       
  27 H27           -3.9725     6.9567     1.7900 H       
@<TRIPOS>BOND
   1    1    2 ar
   2    1    3 ar
   3    1   18 1
   4    2    6 ar
   5    2   19 1
   6    3    4 ar
   7    3    8 1
   8    4    5 ar
   9    5    6 ar
  10    6    7 1
  11    8    9 am
  12    8   20 1
  13    9   10 2
  14    9   11 1
  15   11   12 1
  16   11   21 1
  17   11   22 1
  18   12   13 ar
  19   12   14 ar
  20   13   17 ar
  21   13   23 1
  22   14   15 ar
  23   14   24 1
  24   15   16 ar
  25   15   25 1
  26   16   17 ar
  27   16   26 1
  28   17   27 1

#	End of record

