#	Name: ASD01141036
#	Creating user name:	WinNT
#	Creation time:	15. 06. 2019 19:01

#	Modifying user name:	WinNT
#	Modification time:	15. 06. 2019 19:01

#	Program:	/corina/corina34_cracker 3.40 0067  02.08.2006

@<TRIPOS>MOLECULE
ASD01141036
  51   52    0    0    0
SMALL
NO_CHARGES


@<TRIPOS>ATOM
   1 C1             0.3013     1.2716     1.1952 C.ar    
   2 C2             0.3497    -0.0783     1.5236 C.ar    
   3 C3             1.4533     2.0452     1.2796 C.ar    
   4 O4            -0.8691     1.8329     0.7871 O.3     
   5 C5             1.5459    -0.6476     1.9337 C.ar    
   6 C6             2.6452     1.4678     1.6905 C.ar    
   7 O7             1.4115     3.3659     0.9591 O.3     
   8 C8            -1.6611     2.3506     1.7388 C.2     
   9 C9             2.6888     0.1253     2.0166 C.ar    
  10 C10           -2.9732     2.9890     1.3622 C.3     
  11 O11           -1.3210     2.3047     2.9013 O.2     
  12 N12           -2.7721     3.8791     0.2110 N.3     
  13 C13           -3.9832     1.9001     0.9946 C.3     
  14 C14            2.6331     4.0992     1.0690 C.3     
  15 O15           -0.7742    -0.8393     1.4433 O.3     
  16 C16           -0.6504    -2.2186     1.7960 C.3     
  17 C17           -3.9848     4.6673    -0.0647 C.3     
  18 C18           -3.6270     5.7769    -1.0568 C.3     
  19 C19           -2.8668     5.1952    -2.2157 C.2     
  20 C20           -2.3144     4.0209    -2.1784 C.2     
  21 C21           -2.3805     3.1169    -0.9815 C.3     
  22 C22            3.9862    -0.4976     2.4636 C.3     
  23 C23           -2.5645     4.9734     2.8242 C.3     
  24 C24           -3.5048     3.7989     2.5464 C.3     
  25 H25            1.5844    -1.6963     2.1890 H       
  26 H26            3.5406     2.0681     1.7563 H       
  27 H27           -4.1324     1.2396     1.8488 H       
  28 H28           -4.9323     2.3618     0.7222 H       
  29 H29           -3.6045     1.3231     0.1509 H       
  30 H30            2.4606     5.1372     0.7848 H       
  31 H31            2.9898     4.0587     2.0982 H       
  32 H32            3.3806     3.6609     0.4078 H       
  33 H33            0.0754    -2.6979     1.1390 H       
  34 H34           -0.3144    -2.3006     2.8297 H       
  35 H35           -1.6177    -2.7094     1.6883 H       
  36 H36           -4.7503     4.0226    -0.4966 H       
  37 H37           -4.3533     5.1087     0.8613 H       
  38 H38           -4.5409     6.2459    -1.4214 H       
  39 H39           -3.0107     6.5247    -0.5577 H       
  40 H40           -2.7764     5.7797    -3.1194 H       
  41 H41           -1.7805     3.6772    -3.0520 H       
  42 H42           -1.4027     2.6646    -0.8163 H       
  43 H43           -3.1132     2.3306    -1.1631 H       
  44 H44            4.5251    -0.8774     1.5956 H       
  45 H45            4.5943     0.2527     2.9690 H       
  46 H46            3.7777    -1.3186     3.1496 H       
  47 H47           -1.5517     4.6001     2.9757 H       
  48 H48           -2.5765     5.6571     1.9753 H       
  49 H49           -2.8954     5.4999     3.7194 H       
  50 H50           -4.4993     4.1776     2.3104 H       
  51 H51           -3.5590     3.1604     3.4282 H       
@<TRIPOS>BOND
   1    1    2 ar
   2    1    3 ar
   3    1    4 1
   4    2    5 ar
   5    2   15 1
   6    3    6 ar
   7    3    7 1
   8    4    8 1
   9    5    9 ar
  10    5   25 1
  11    6    9 ar
  12    6   26 1
  13    7   14 1
  14    8   10 1
  15    8   11 2
  16    9   22 1
  17   10   13 1
  18   10   24 1
  19   10   12 1
  20   12   17 1
  21   12   21 1
  22   13   27 1
  23   13   28 1
  24   13   29 1
  25   14   30 1
  26   14   31 1
  27   14   32 1
  28   15   16 1
  29   16   33 1
  30   16   34 1
  31   16   35 1
  32   17   18 1
  33   17   36 1
  34   17   37 1
  35   18   19 1
  36   18   38 1
  37   18   39 1
  38   19   20 2
  39   19   40 1
  40   20   21 1
  41   20   41 1
  42   21   42 1
  43   21   43 1
  44   22   44 1
  45   22   45 1
  46   22   46 1
  47   23   24 1
  48   23   47 1
  49   23   48 1
  50   23   49 1
  51   24   50 1
  52   24   51 1

#	End of record

