#	Name: ASD08150618
#	Creating user name:	WinNT
#	Creation time:	15. 06. 2019 21:16

#	Modifying user name:	WinNT
#	Modification time:	15. 06. 2019 21:16

#	Program:	/corina/corina34_cracker 3.40 0067  02.08.2006

@<TRIPOS>MOLECULE
ASD08150618
  79   85    0    0    0
SMALL
NO_CHARGES


@<TRIPOS>ATOM
   1 N1            -0.2943     0.7892     0.0570 N.am    
   2 C2             0.6015     1.0909    -0.9028 C.2     
   3 C3             1.8209     0.3904    -1.0007 C.2     
   4 C4             2.1098    -0.6039    -0.1228 C.2     
   5 C5             1.1698    -0.9235     0.8885 C.ar    
   6 C6             1.4200    -1.9453     1.8244 C.ar    
   7 N7             0.5510    -2.2380     2.7563 N.ar    
   8 C8            -0.6178    -1.5904     2.8767 C.ar    
   9 C9            -0.9533    -0.5474     1.9787 C.ar    
  10 C10           -0.0348    -0.2066     0.9580 C.ar    
  11 C11           -2.1742     0.1207     2.1120 C.ar    
  12 C12           -3.0457    -0.2463     3.1249 C.ar    
  13 C13           -2.7066    -1.2792     4.0101 C.ar    
  14 C14           -1.5227    -1.9382     3.8931 C.ar    
  15 O15            0.3541     1.9815    -1.6979 O.2     
  16 C16           -4.3429     0.4571     3.2735 C.ar    
  17 C17           -1.4968     1.5039     0.1364 C.ar    
  18 C18           -1.5741     2.6482     0.9202 C.ar    
  19 C19           -2.7585     3.3523     0.9985 C.ar    
  20 C20           -3.8736     2.9165     0.2934 C.ar    
  21 C21           -3.7961     1.7723    -0.4903 C.ar    
  22 C22           -2.6096     1.0714    -0.5729 C.ar    
  23 N23           -5.0735     3.6294     0.3730 N.3     
  24 C24           -4.6074     1.6175     2.5287 C.ar    
  25 C25           -5.2249     4.5350    -0.7737 C.3     
  26 C26           -6.6239     5.1597    -0.7458 C.3     
  27 N27           -5.7433     2.2583     2.6393 N.ar    
  28 C28           -6.7077     1.8406     3.4661 C.ar    
  29 C29           -6.5164     0.6764     4.2522 C.ar    
  30 C30           -5.3061    -0.0301     4.1452 C.ar    
  31 C31           -7.9211     2.5427     3.5715 C.ar    
  32 C32           -8.8880     2.0987     4.4202 C.ar    
  33 C33           -8.6976     0.9543     5.1923 C.ar    
  34 C34           -7.5366     0.2474     5.1181 C.ar    
  35 N35           -6.8312     5.7826     0.5703 N.am    
  36 C36           -6.5658     4.9763     1.7715 C.3     
  37 C37           -5.1691     4.3589     1.6444 C.3     
  38 C38           -7.2536     7.0584     0.6730 C.2     
  39 C39           -7.4595     7.6769     2.0317 C.3     
  40 O40           -7.4680     7.7086    -0.3281 O.2     
  41 C41           -7.9374     9.1211     1.8675 C.3     
  42 C42           -8.1464     9.7491     3.2469 C.3     
  43 C43           -8.6243    11.1932     3.0827 C.3     
  44 C44           -5.0055     1.2992    -1.2548 C.3     
  45 F45           -4.7265     0.0651    -1.8517 F       
  46 F46           -6.0863     1.1592    -0.3776 F       
  47 F47           -5.3265     2.2341    -2.2448 F       
  48 H48            2.5273     0.6453    -1.7768 H       
  49 H49            3.0424    -1.1438    -0.1943 H       
  50 H50            2.3466    -2.4976     1.7712 H       
  51 H51           -2.4360     0.9170     1.4310 H       
  52 H52           -3.3947    -1.5552     4.7954 H       
  53 H53           -1.2778    -2.7317     4.5836 H       
  54 H54           -0.7074     2.9867     1.4685 H       
  55 H55           -2.8186     4.2417     1.6081 H       
  56 H56           -2.5481     0.1842    -1.1857 H       
  57 H57           -3.8558     1.9903     1.8488 H       
  58 H58           -4.4736     5.3227    -0.7167 H       
  59 H59           -5.0953     3.9744    -1.6995 H       
  60 H60           -6.7024     5.9170    -1.5258 H       
  61 H61           -7.3739     4.3853    -0.9066 H       
  62 H62           -5.1281    -0.9206     4.7297 H       
  63 H63           -8.0853     3.4320     2.9811 H       
  64 H64           -9.8180     2.6424     4.4968 H       
  65 H65           -9.4811     0.6242     5.8583 H       
  66 H66           -7.4005    -0.6381     5.7212 H       
  67 H67           -6.6059     5.6124     2.6557 H       
  68 H68           -7.3103     4.1843     1.8526 H       
  69 H69           -4.9990     3.6706     2.4723 H       
  70 H70           -4.4186     5.1490     1.6677 H       
  71 H71           -8.2086     7.1065     2.5808 H       
  72 H72           -6.5188     7.6659     2.5822 H       
  73 H73           -7.1883     9.6915     1.3183 H       
  74 H74           -8.8780     9.1321     1.3169 H       
  75 H75           -8.8955     9.1787     3.7961 H       
  76 H76           -7.2057     9.7380     3.7975 H       
  77 H77           -7.8752    11.7636     2.5336 H       
  78 H78           -9.5650    11.2042     2.5322 H       
  79 H79           -8.7732    11.6406     4.0655 H       
@<TRIPOS>BOND
   1    1    2 am
   2    1   10 1
   3    1   17 1
   4    2    3 1
   5    2   15 2
   6    3    4 2
   7    3   48 1
   8    4    5 1
   9    4   49 1
  10    5    6 ar
  11    5   10 ar
  12    6    7 ar
  13    6   50 1
  14    7    8 ar
  15    8    9 ar
  16    8   14 ar
  17    9   10 ar
  18    9   11 ar
  19   11   12 ar
  20   11   51 1
  21   12   13 ar
  22   12   16 1
  23   13   14 ar
  24   13   52 1
  25   14   53 1
  26   16   24 ar
  27   16   30 ar
  28   17   18 ar
  29   17   22 ar
  30   18   19 ar
  31   18   54 1
  32   19   20 ar
  33   19   55 1
  34   20   21 ar
  35   20   23 1
  36   21   22 ar
  37   21   44 1
  38   22   56 1
  39   23   25 1
  40   23   37 1
  41   24   27 ar
  42   24   57 1
  43   25   26 1
  44   25   58 1
  45   25   59 1
  46   26   35 1
  47   26   60 1
  48   26   61 1
  49   27   28 ar
  50   28   29 ar
  51   28   31 ar
  52   29   30 ar
  53   29   34 ar
  54   30   62 1
  55   31   32 ar
  56   31   63 1
  57   32   33 ar
  58   32   64 1
  59   33   34 ar
  60   33   65 1
  61   34   66 1
  62   35   36 1
  63   35   38 am
  64   36   37 1
  65   36   67 1
  66   36   68 1
  67   37   69 1
  68   37   70 1
  69   38   39 1
  70   38   40 2
  71   39   41 1
  72   39   71 1
  73   39   72 1
  74   41   42 1
  75   41   73 1
  76   41   74 1
  77   42   43 1
  78   42   75 1
  79   42   76 1
  80   43   77 1
  81   43   78 1
  82   43   79 1
  83   44   45 1
  84   44   46 1
  85   44   47 1

#	End of record

