#	Name: ASD07930089
#	Creating user name:	WinNT
#	Creation time:	15. 06. 2019 21:11

#	Modifying user name:	WinNT
#	Modification time:	15. 06. 2019 21:11

#	Program:	/corina/corina34_cracker 3.40 0067  02.08.2006

@<TRIPOS>MOLECULE
ASD07930089
  36   35    0    0    0
SMALL
NO_CHARGES


@<TRIPOS>ATOM
   1 C1            -0.0187     1.5258     0.0104 C.3     
   2 C2             0.0021    -0.0041     0.0020 C.3     
   3 N3             0.6059    -0.4925     1.2489 N.3     
   4 C4             0.6686    -2.4434     2.7279 C.3     
   5 C5             0.6428    -1.9607     1.2762 C.3     
   6 C6             1.8978    -2.4530     0.5527 C.3     
   7 O7             1.8856    -2.0231     3.3479 O.3     
   8 C8             2.0682    -2.3728     4.6489 C.ar    
   9 C9             3.2272    -1.9975     5.3126 C.ar    
  10 C10            3.4112    -2.3531     6.6345 C.ar    
  11 C11            2.4397    -3.0842     7.2973 C.ar    
  12 C12            1.2827    -3.4594     6.6362 C.ar    
  13 C13            1.0935    -3.1001     5.3155 C.ar    
  14 C14            4.2851    -1.2027     4.5914 C.3     
  15 F15            5.3502    -0.9466     5.4616 F       
  16 F16            4.7473    -1.9323     3.4908 F       
  17 F17            3.7401     0.0086     4.1523 F       
  18 F18            2.6214    -3.4321     8.5900 F       
  19 O19            1.3220     2.0204     0.0003 O.3     
  20 H20           -0.5459     1.8868    -0.8726 H       
  21 H21           -0.5289     1.8773     0.9072 H       
  22 H22           -1.0175    -0.3808    -0.0798 H       
  23 H23            0.5883    -0.3548    -0.8473 H       
  24 H24            1.5284    -0.1051     1.3799 H       
  25 H25           -0.1789    -2.0198     3.2668 H       
  26 H26            0.6063    -3.5314     2.7502 H       
  27 H27           -0.2425    -2.3557     0.7777 H       
  28 H28            1.9251    -3.5424     0.5729 H       
  29 H29            1.8793    -2.1091    -0.4815 H       
  30 H30            2.7830    -2.0580     1.0511 H       
  31 H31            4.3134    -2.0611     7.1514 H       
  32 H32            0.5258    -4.0295     7.1543 H       
  33 H33            0.1889    -3.3893     4.8012 H       
  34 H34            1.3852     2.9853     0.0049 H       
  35 Cl35          10.3502     7.9853    13.5900 Cl      
  36 H36           10.3502     9.3553    13.5900 H       
@<TRIPOS>BOND
   1    1    2 1
   2    1   19 1
   3    1   20 1
   4    1   21 1
   5    2    3 1
   6    2   22 1
   7    2   23 1
   8    3    5 1
   9    3   24 1
  10    4    5 1
  11    4    7 1
  12    4   25 1
  13    4   26 1
  14    5    6 1
  15    5   27 1
  16    6   28 1
  17    6   29 1
  18    6   30 1
  19    7    8 1
  20    8    9 ar
  21    8   13 ar
  22    9   10 ar
  23    9   14 1
  24   10   11 ar
  25   10   31 1
  26   11   12 ar
  27   11   18 1
  28   12   13 ar
  29   12   32 1
  30   13   33 1
  31   14   15 1
  32   14   16 1
  33   14   17 1
  34   19   34 1
  35   35   36 1

#	End of record

