#	Name: ASD01915205
#	Creating user name:	WinNT
#	Creation time:	15. 06. 2019 20:05

#	Modifying user name:	WinNT
#	Modification time:	15. 06. 2019 20:05

#	Program:	/corina/corina34_cracker 3.40 0067  02.08.2006

@<TRIPOS>MOLECULE
ASD01915205
  27   28    0    0    0
SMALL
NO_CHARGES


@<TRIPOS>ATOM
   1 C1            -0.0169     1.3922     0.0097 C.ar    
   2 C2             0.0021    -0.0041     0.0020 C.ar    
   3 C3            -1.1847    -0.7146     0.0096 C.ar    
   4 C4            -2.3958    -0.0477     0.0247 C.ar    
   5 C5            -2.4269     1.3491     0.0330 C.ar    
   6 C6            -1.2342     2.0699     0.0308 C.ar    
   7 F7            -1.1603    -2.0654     0.0016 F       
   8 C8             1.2525     2.1501     0.0016 C.2     
   9 N9             2.4294     1.4934    -0.0131 N.am    
  10 O10            1.2348     3.3656     0.0083 O.2     
  11 C11            3.6321     2.2115    -0.0207 C.2     
  12 C12            3.7579     3.6101    -0.0144 C.2     
  13 C13            5.0769     3.9081    -0.0254 C.2     
  14 N14            5.7638     2.7463    -0.0382 N.pl3   
  15 N15            4.8384     1.6948    -0.0293 N.2     
  16 C16            7.2223     2.6090    -0.0529 C.3     
  17 C17           -3.6818     2.0387     0.0482 C.1     
  18 N18           -4.6774     2.5858     0.0602 N.1     
  19 H19            0.9452    -0.5302    -0.0102 H       
  20 H20           -3.3194    -0.6075     0.0298 H       
  21 H21           -1.2534     3.1497     0.0371 H       
  22 H22            2.4435     0.5235    -0.0185 H       
  23 H23            2.9454     4.3215    -0.0032 H       
  24 H24            5.5048     4.8997    -0.0245 H       
  25 H25            7.5938     2.5694     0.9710 H       
  26 H26            7.4956     1.6916    -0.5743 H       
  27 H27            7.6626     3.4637    -0.5664 H       
@<TRIPOS>BOND
   1    1    2 ar
   2    1    8 1
   3    1    6 ar
   4    2    3 ar
   5    2   19 1
   6    3    4 ar
   7    3    7 1
   8    4    5 ar
   9    4   20 1
  10    5    6 ar
  11    5   17 1
  12    6   21 1
  13    8    9 am
  14    8   10 2
  15    9   11 1
  16    9   22 1
  17   11   12 1
  18   11   15 2
  19   12   13 2
  20   12   23 1
  21   13   14 1
  22   13   24 1
  23   14   15 1
  24   14   16 1
  25   16   25 1
  26   16   26 1
  27   16   27 1
  28   17   18 3

#	End of record

