#	Name: ASD01911907
#	Creating user name:	WinNT
#	Creation time:	15. 06. 2019 19:58

#	Modifying user name:	WinNT
#	Modification time:	15. 06. 2019 19:58

#	Program:	/corina/corina34_cracker 3.40 0067  02.08.2006

@<TRIPOS>MOLECULE
ASD01911907
  34   36    0    0    0
SMALL
NO_CHARGES


@<TRIPOS>ATOM
   1 C1            -1.0487    -0.4834    -2.0505 C.ar    
   2 C2            -1.0617     0.0603    -0.7701 C.ar    
   3 C3            -1.0260     1.4450    -0.6415 C.ar    
   4 N4            -0.9812     2.1902    -1.7336 N.ar    
   5 C5            -0.9703     1.6372    -2.9298 C.ar    
   6 N6            -1.0031     0.3298    -3.0929 N.ar    
   7 O7            -1.1086    -0.7407     0.3269 O.3     
   8 C8            -1.1453    -2.0852     0.1340 C.ar    
   9 C9             0.0138    -2.7698    -0.2042 C.ar    
  10 C10           -0.0222    -4.1393    -0.4004 C.ar    
  11 C11           -1.2137    -4.8290    -0.2600 C.ar    
  12 C12           -2.3755    -4.1472     0.0778 C.ar    
  13 C13           -2.3391    -2.7743     0.2804 C.ar    
  14 N14           -3.5797    -4.8437     0.2188 N.am    
  15 C15           -3.5754    -6.1114     0.6766 C.2     
  16 C16           -4.8375    -6.8849     0.7269 C.ar    
  17 O17           -2.5359    -6.6197     1.0481 O.2     
  18 C18           -4.8261    -8.1938     1.2009 C.ar    
  19 C19           -6.0150    -8.9067     1.2431 C.ar    
  20 C20           -7.1742    -8.2857     0.8098 C.ar    
  21 C21           -7.1134    -6.9765     0.3487 C.ar    
  22 N22           -5.9712    -6.3217     0.3246 N.ar    
  23 F23           -8.2414    -6.3657    -0.0753 F       
  24 F24            1.1071    -4.8035    -0.7300 F       
  25 H25           -1.0709    -1.5540    -2.1914 H       
  26 H26           -1.0350     1.9050     0.3356 H       
  27 H27           -0.9338     2.2736    -3.8016 H       
  28 H28            0.9445    -2.2333    -0.3146 H       
  29 H29           -1.2402    -5.8977    -0.4135 H       
  30 H30           -3.2415    -2.2425     0.5436 H       
  31 H31           -4.4182    -4.4146    -0.0128 H       
  32 H32           -3.9036    -8.6481     1.5309 H       
  33 H33           -6.0361    -9.9239     1.6056 H       
  34 H34           -8.1161    -8.8138     0.8296 H       
@<TRIPOS>BOND
   1    1    2 ar
   2    1    6 ar
   3    1   25 1
   4    2    3 ar
   5    2    7 1
   6    3    4 ar
   7    3   26 1
   8    4    5 ar
   9    5    6 ar
  10    5   27 1
  11    7    8 1
  12    8    9 ar
  13    8   13 ar
  14    9   10 ar
  15    9   28 1
  16   10   11 ar
  17   10   24 1
  18   11   12 ar
  19   11   29 1
  20   12   13 ar
  21   12   14 1
  22   13   30 1
  23   14   15 am
  24   14   31 1
  25   15   16 1
  26   15   17 2
  27   16   18 ar
  28   16   22 ar
  29   18   19 ar
  30   18   32 1
  31   19   20 ar
  32   19   33 1
  33   20   21 ar
  34   20   34 1
  35   21   22 ar
  36   21   23 1

#	End of record

