#	Name: ASD03930090
#	Creating user name:	WinNT
#	Creation time:	15. 06. 2019 20:47

#	Modifying user name:	WinNT
#	Modification time:	15. 06. 2019 20:47

#	Program:	/corina/corina34_cracker 3.40 0067  02.08.2006

@<TRIPOS>MOLECULE
ASD03930090
  33   35    0    0    0
SMALL
NO_CHARGES


@<TRIPOS>ATOM
   1 C1            -0.1044     1.4310     0.1984 C.ar    
   2 C2            -0.1426     0.0566     0.2778 C.ar    
   3 C3             1.0364    -0.6796     0.2560 C.ar    
   4 C4             2.2630    -0.0286     0.1504 C.ar    
   5 C5             2.3080     1.3513     0.0716 C.ar    
   6 C6             1.1230     2.0902     0.0953 C.ar    
   7 O7             0.9749    -2.0350     0.3433 O.3     
   8 C8             2.1420    -2.7601    -0.0586 C.3     
   9 C9             3.3674    -2.0906     0.5781 C.3     
  10 O10            3.4261    -0.7355     0.1197 O.3     
  11 C11            0.1394     5.7025    -0.6385 C.3     
  12 N12            0.1968     4.2302    -0.6444 N.am    
  13 C13           -0.8480     3.5189    -1.3951 C.3     
  14 C14           -1.0715     4.2140    -2.7091 C.2     
  15 C15           -0.5801     5.3761    -2.9986 C.2     
  16 C16            0.2911     6.1845    -2.0839 C.3     
  17 C17            1.1673     3.5632     0.0111 C.2     
  18 O18            2.0794     4.1748     0.5330 O.2     
  19 H19           -1.0231     1.9986     0.2114 H       
  20 H20           -1.0923    -0.4513     0.3576 H       
  21 H21            3.2589     1.8573    -0.0078 H       
  22 H22            2.0687    -3.7927     0.2827 H       
  23 H23            2.2333    -2.7370    -1.1445 H       
  24 H24            3.2730    -2.1077     1.6638 H       
  25 H25            4.2722    -2.6195     0.2788 H       
  26 H26           -0.8191     6.0326    -0.2380 H       
  27 H27            0.9511     6.1008    -0.0298 H       
  28 H28           -0.5313     2.4917    -1.5757 H       
  29 H29           -1.7741     3.5198    -0.8203 H       
  30 H30           -1.6754     3.7160    -3.4532 H       
  31 H31           -0.8137     5.7927    -3.9672 H       
  32 H32            0.0031     7.2339    -2.1459 H       
  33 H33            1.3315     6.0802    -2.3917 H       
@<TRIPOS>BOND
   1    1    2 ar
   2    1    6 ar
   3    1   19 1
   4    2    3 ar
   5    2   20 1
   6    3    4 ar
   7    3    7 1
   8    4    5 ar
   9    4   10 1
  10    5    6 ar
  11    5   21 1
  12    6   17 1
  13    7    8 1
  14    8    9 1
  15    8   22 1
  16    8   23 1
  17    9   10 1
  18    9   24 1
  19    9   25 1
  20   11   12 1
  21   11   16 1
  22   11   26 1
  23   11   27 1
  24   12   13 1
  25   12   17 am
  26   13   14 1
  27   13   28 1
  28   13   29 1
  29   14   15 2
  30   14   30 1
  31   15   16 1
  32   15   31 1
  33   16   32 1
  34   16   33 1
  35   17   18 2

#	End of record

