#	Name: ASD01310002
#	Creating user name:	WinNT
#	Creation time:	15. 06. 2019 19:15

#	Modifying user name:	WinNT
#	Modification time:	15. 06. 2019 19:15

#	Program:	/corina/corina34_cracker 3.40 0067  02.08.2006

@<TRIPOS>MOLECULE
ASD01310002
  12   11    0    0    0
SMALL
NO_CHARGES


@<TRIPOS>ATOM
   1 C1            -0.0187     1.5258     0.0104 C.3     
   2 C2             0.0021    -0.0041     0.0020 C.3     
   3 F3             1.2938     2.0100     0.0005 F       
   4 F4            -0.6953     1.9892    -1.1230 F       
   5 F5            -0.6735     1.9769     1.1615 F       
   6 O6             0.6932    -0.4774     1.1597 O.3     
   7 C7             0.7699    -1.9016     1.2491 C.3     
   8 F8            -0.5222    -2.4364     1.2922 F       
   9 F9             1.4451    -2.4033     0.1312 F       
  10 Cl10          -1.6894    -0.6281     0.0148 Cl      
  11 H11            0.5123    -0.3556    -0.8948 H       
  12 H12            1.3089    -2.1803     2.1545 H       
@<TRIPOS>BOND
   1    1    2 1
   2    1    3 1
   3    1    4 1
   4    1    5 1
   5    2    6 1
   6    2   10 1
   7    2   11 1
   8    6    7 1
   9    7    8 1
  10    7    9 1
  11    7   12 1

#	End of record

