#	Name: ASD01918071
#	Creating user name:	WinNT
#	Creation time:	15. 06. 2019 20:10

#	Modifying user name:	WinNT
#	Modification time:	15. 06. 2019 20:10

#	Program:	/corina/corina34_cracker 3.40 0067  02.08.2006

@<TRIPOS>MOLECULE
ASD01918071
  51   54    0    0    0
SMALL
NO_CHARGES


@<TRIPOS>ATOM
   1 C1            -0.0229     1.4979     0.0323 C.3     
   2 C2            -0.0030    -0.0078     0.0104 C.2     
   3 C3             1.0839    -0.7502    -0.3152 C.2     
   4 C4             2.4195    -0.1741    -0.7032 C.3     
   5 C5             2.2210     1.3042    -1.0630 C.3     
   6 C6             1.4269     1.9996     0.0455 C.3     
   7 N7             0.7092    -2.0370    -0.2161 N.pl3   
   8 N8            -0.5299    -2.0648     0.1452 N.2     
   9 N9            -0.9807    -0.8643     0.2876 N.2     
  10 C10            1.5578    -3.2033    -0.4730 C.3     
  11 C11            1.4446     3.4891    -0.1831 C.2     
  12 N12            1.9232     4.3985     0.6314 N.2     
  13 C13            1.7238     5.5773     0.0153 C.2     
  14 N14            1.1447     5.3292    -1.1213 N.2     
  15 O15            0.9806     4.1351    -1.2571 O.3     
  16 C16            2.1018     6.9362     0.5458 C.3     
  17 C17            2.8289    -3.1055     0.3729 C.3     
  18 C18            0.7970    -4.4786    -0.1046 C.3     
  19 C19            1.9336    -3.2440    -1.9556 C.3     
  20 C20            3.0826     7.6056    -0.4190 C.3     
  21 C21            3.4665     8.9852     0.1196 C.3     
  22 C22            2.2105     9.8490     0.2508 C.3     
  23 C23            1.2297     9.1796     1.2157 C.3     
  24 C24            0.8458     7.8000     0.6770 C.3     
  25 H25           -0.5328     1.8714    -0.8557 H       
  26 H26           -0.5399     1.8454     0.9268 H       
  27 H27            3.1129    -0.2586     0.1335 H       
  28 H28            2.8152    -0.7119    -1.5647 H       
  29 H29            3.1931     1.7855    -1.1700 H       
  30 H30            1.6737     1.3789    -2.0027 H       
  31 H31            1.8798     1.7755     1.0112 H       
  32 H32            2.5714     6.8268     1.5234 H       
  33 H33            2.5611    -3.0765     1.4291 H       
  34 H34            3.4602    -3.9732     0.1818 H       
  35 H35            3.3709    -2.1969     0.1105 H       
  36 H36           -0.1086    -4.5483    -0.7073 H       
  37 H37            1.4283    -5.3464    -0.2958 H       
  38 H38            0.5292    -4.4497     0.9516 H       
  39 H39            2.3990    -2.2998    -2.2384 H       
  40 H40            2.6337    -4.0609    -2.1307 H       
  41 H41            1.0360    -3.4002    -2.5538 H       
  42 H42            3.9774     6.9902    -0.5125 H       
  43 H43            2.6131     7.7149    -1.3966 H       
  44 H44            3.9360     8.8759     1.0972 H       
  45 H45            4.1652     9.4621    -0.5678 H       
  46 H46            2.4839    10.8319     0.6346 H       
  47 H47            1.7409     9.9584    -0.7267 H       
  48 H48            1.6992     9.0703     2.1933 H       
  49 H49            0.3349     9.7950     1.3092 H       
  50 H50            0.3763     7.9093    -0.3005 H       
  51 H51            0.1471     7.3231     1.3644 H       
@<TRIPOS>BOND
   1    1    2 1
   2    1    6 1
   3    1   25 1
   4    1   26 1
   5    2    9 1
   6    2    3 2
   7    3    4 1
   8    3    7 1
   9    4    5 1
  10    4   27 1
  11    4   28 1
  12    5    6 1
  13    5   29 1
  14    5   30 1
  15    6   11 1
  16    6   31 1
  17    7    8 1
  18    7   10 1
  19    8    9 2
  20   10   17 1
  21   10   18 1
  22   10   19 1
  23   11   12 2
  24   11   15 1
  25   12   13 1
  26   13   14 2
  27   13   16 1
  28   14   15 1
  29   16   20 1
  30   16   24 1
  31   16   32 1
  32   17   33 1
  33   17   34 1
  34   17   35 1
  35   18   36 1
  36   18   37 1
  37   18   38 1
  38   19   39 1
  39   19   40 1
  40   19   41 1
  41   20   21 1
  42   20   42 1
  43   20   43 1
  44   21   22 1
  45   21   44 1
  46   21   45 1
  47   22   23 1
  48   22   46 1
  49   22   47 1
  50   23   24 1
  51   23   48 1
  52   23   49 1
  53   24   50 1
  54   24   51 1

#	End of record

