#	Name: ASD01420332
#	Creating user name:	WinNT
#	Creation time:	15. 06. 2019 19:20

#	Modifying user name:	WinNT
#	Modification time:	15. 06. 2019 19:20

#	Program:	/corina/corina34_cracker 3.40 0067  02.08.2006

@<TRIPOS>MOLECULE
ASD01420332
  44   46    0    0    0
SMALL
NO_CHARGES


@<TRIPOS>ATOM
   1 C1            -0.0178     1.4621     0.0101 C.3     
   2 N2             0.0021    -0.0041     0.0020 N.am    
   3 C3             1.4109    -0.4106    -0.0136 C.3     
   4 C4             2.2496     0.8424    -0.0149 C.ar    
   5 C5             3.6224     1.0209    -0.0275 C.ar    
   6 C6             4.1554     2.2954    -0.0257 C.ar    
   7 C7             3.3169     3.3945    -0.0117 C.ar    
   8 C8             1.9469     3.2171     0.0003 C.ar    
   9 C9             1.4122     1.9401    -0.0010 C.ar    
  10 C10           -1.0694    -0.8216     0.0083 C.2     
  11 O11           -0.9142    -2.0267     0.0007 O.2     
  12 O12           -2.3118    -0.3030     0.0228 O.3     
  13 C13            5.6501     2.4875    -0.0383 C.3     
  14 O14            6.1102     2.5553    -1.3895 O.3     
  15 S15            7.6139     2.7494    -1.5225 S.o2    
  16 O16            7.8082     3.0498    -2.8977 O.2     
  17 O17            7.9356     3.6965    -0.5131 O.2     
  18 C18            8.3171     1.1264    -1.1199 C.3     
  19 C19           -3.4185    -1.2429     0.0288 C.3     
  20 C20           -4.7210    -0.4852     0.0452 C.ar    
  21 C21           -5.3300    -0.1317    -1.1444 C.ar    
  22 C22           -6.5248     0.5634    -1.1294 C.ar    
  23 C23           -7.1108     0.9046     0.0752 C.ar    
  24 C24           -6.5023     0.5503     1.2648 C.ar    
  25 C25           -5.3097    -0.1486     1.2498 C.ar    
  26 H26           -0.5370     1.8294    -0.8752 H       
  27 H27           -0.5199     1.8199     0.9090 H       
  28 H28            1.6341    -1.0037     0.8732 H       
  29 H29            1.6171    -0.9941    -0.9109 H       
  30 H30            4.2777     0.1625    -0.0383 H       
  31 H31            3.7326     4.3913    -0.0100 H       
  32 H32            1.2921     4.0758     0.0116 H       
  33 H33            5.9017     3.4139     0.4781 H       
  34 H34            6.1286     1.6485     0.4667 H       
  35 H35            7.9392     0.3826    -1.8214 H       
  36 H36            9.4037     1.1736    -1.1908 H       
  37 H37            8.0308     0.8478    -0.1058 H       
  38 H38           -3.3714    -1.8653    -0.8648 H       
  39 H39           -3.3542    -1.8742     0.9151 H       
  40 H40           -4.8721    -0.3982    -2.0855 H       
  41 H41           -7.0002     0.8403    -2.0587 H       
  42 H42           -8.0439     1.4483     0.0870 H       
  43 H43           -6.9600     0.8171     2.2059 H       
  44 H44           -4.8362    -0.4287     2.1791 H       
@<TRIPOS>BOND
   1    1    2 1
   2    1    9 1
   3    1   26 1
   4    1   27 1
   5    2    3 1
   6    2   10 am
   7    3    4 1
   8    3   28 1
   9    3   29 1
  10    4    5 ar
  11    4    9 ar
  12    5    6 ar
  13    5   30 1
  14    6    7 ar
  15    6   13 1
  16    7    8 ar
  17    7   31 1
  18    8    9 ar
  19    8   32 1
  20   10   11 2
  21   10   12 1
  22   12   19 1
  23   13   14 1
  24   13   33 1
  25   13   34 1
  26   14   15 1
  27   15   16 2
  28   15   17 2
  29   15   18 1
  30   18   35 1
  31   18   36 1
  32   18   37 1
  33   19   20 1
  34   19   38 1
  35   19   39 1
  36   20   21 ar
  37   20   25 ar
  38   21   22 ar
  39   21   40 1
  40   22   23 ar
  41   22   41 1
  42   23   24 ar
  43   23   42 1
  44   24   25 ar
  45   24   43 1
  46   25   44 1

#	End of record

