#	Name: ASD08150778
#	Creating user name:	WinNT
#	Creation time:	15. 06. 2019 21:16

#	Modifying user name:	WinNT
#	Modification time:	15. 06. 2019 21:16

#	Program:	/corina/corina34_cracker 3.40 0067  02.08.2006

@<TRIPOS>MOLECULE
ASD08150778
  54   57    0    0    0
SMALL
NO_CHARGES


@<TRIPOS>ATOM
   1 C1            -0.0160     1.3286     0.0093 C.2     
   2 N2             0.0021    -0.0041     0.0020 N.2     
   3 C3             1.1366    -0.6806    -0.0121 C.2     
   4 C4             2.3522     0.0014    -0.0195 C.2     
   5 C5             2.3360     1.4122    -0.0118 C.2     
   6 N6             1.1456     2.0498     0.0021 N.am    
   7 C7            -1.2510     2.0016     0.0188 C.2     
   8 C8            -1.2726     3.3645     0.0263 C.2     
   9 C9            -0.0644     4.0754     0.0244 C.2     
  10 C10            1.1134     3.4117     0.0084 C.2     
  11 O11            3.3791     2.0450    -0.0171 O.2     
  12 C12            1.1166    -2.1874    -0.0195 C.3     
  13 C13            0.5125    -2.6959     1.2910 C.3     
  14 N14            0.3074    -2.6595    -1.1458 N.pl3   
  15 N15           -1.2485    -3.8766    -3.5014 N.2     
  16 C16           -1.6043    -4.7451    -4.4028 C.2     
  17 N17           -0.8362    -5.8665    -4.2980 N.pl3   
  18 C18            0.0444    -5.6667    -3.2651 C.ar    
  19 N19            1.0130    -6.3842    -2.7056 N.ar    
  20 C20            1.7059    -5.9033    -1.6948 C.ar    
  21 N21            1.4820    -4.7045    -1.1885 N.ar    
  22 C22            0.5341    -3.9147    -1.6827 C.ar    
  23 C23           -0.2323    -4.3837    -2.7629 C.ar    
  24 C24            3.6344    -0.7397    -0.0348 C.ar    
  25 C25            4.4854    -0.6427    -1.1355 C.ar    
  26 C26            5.6809    -1.3364    -1.1449 C.ar    
  27 C27            6.0341    -2.1272    -0.0637 C.ar    
  28 C28            5.1923    -2.2267     1.0320 C.ar    
  29 C29            3.9975    -1.5322     1.0538 C.ar    
  30 F30            5.5423    -2.9996     2.0833 F       
  31 F31            6.5062    -1.2433    -2.2105 F       
  32 H32           -2.1752     1.4427     0.0198 H       
  33 H33           -2.2143     3.8931     0.0332 H       
  34 H34           -0.0746     5.1553     0.0303 H       
  35 H35            2.0394     3.9677     0.0023 H       
  36 H36            2.1345    -2.5638    -0.1205 H       
  37 H37            0.4981    -3.7858     1.2856 H       
  38 H38            1.1146    -2.3447     2.1290 H       
  39 H39           -0.5054    -2.3196     1.3920 H       
  40 H40           -0.3874    -2.0923    -1.5153 H       
  41 H41           -2.3924    -4.5993    -5.1268 H       
  42 H42           -0.9007    -6.6602    -4.8518 H       
  43 H43            2.4862    -6.5124    -1.2630 H       
  44 H44            4.2106    -0.0271    -1.9791 H       
  45 H45            6.9688    -2.6681    -0.0752 H       
  46 H46            3.3439    -1.6069     1.9103 H       
  47 C47           13.1402    12.1435     8.2758 C.2     
  48 C48           13.1607    10.6367     8.2675 C.3     
  49 O49           14.1783    12.7618     8.2692 O.2     
  50 O50           11.9688    12.7988     8.2849 O.3     
  51 F51           14.4858    10.1884     8.2525 F       
  52 F52           12.5185    10.1553     9.4134 F       
  53 F53           12.4967    10.1676     7.1290 F       
  54 H54           12.0063    13.7651     8.2900 H       
@<TRIPOS>BOND
   1    1    2 2
   2    1    6 1
   3    1    7 1
   4    2    3 1
   5    3    4 2
   6    3   12 1
   7    4    5 1
   8    4   24 1
   9    5    6 am
  10    5   11 2
  11    6   10 1
  12    7    8 2
  13    7   32 1
  14    8    9 1
  15    8   33 1
  16    9   10 2
  17    9   34 1
  18   10   35 1
  19   12   13 1
  20   12   14 1
  21   12   36 1
  22   13   37 1
  23   13   38 1
  24   13   39 1
  25   14   22 1
  26   14   40 1
  27   15   16 2
  28   15   23 1
  29   16   17 1
  30   16   41 1
  31   17   18 1
  32   17   42 1
  33   18   19 ar
  34   18   23 ar
  35   19   20 ar
  36   20   21 ar
  37   20   43 1
  38   21   22 ar
  39   22   23 ar
  40   24   25 ar
  41   24   29 ar
  42   25   26 ar
  43   25   44 1
  44   26   27 ar
  45   26   31 1
  46   27   28 ar
  47   27   45 1
  48   28   29 ar
  49   28   30 1
  50   29   46 1
  51   47   48 1
  52   47   49 2
  53   47   50 1
  54   48   51 1
  55   48   52 1
  56   48   53 1
  57   50   54 1

#	End of record

