#	Name: ASD01911623
#	Creating user name:	WinNT
#	Creation time:	15. 06. 2019 19:58

#	Modifying user name:	WinNT
#	Modification time:	15. 06. 2019 19:58

#	Program:	/corina/corina34_cracker 3.40 0067  02.08.2006

@<TRIPOS>MOLECULE
ASD01911623
  37   39    0    0    0
SMALL
NO_CHARGES


@<TRIPOS>ATOM
   1 N1            -0.0096     1.2558    -0.4765 N.am    
   2 C2             0.0021    -0.0041     0.0020 C.2     
   3 C3            -1.2508    -0.7543     0.1205 C.2     
   4 C4            -1.3862    -2.1135     0.0310 C.2     
   5 S5            -2.8471    -0.0659     0.4110 S.3     
   6 C6            -3.5481    -1.6813     0.3766 C.2     
   7 N7            -2.6015    -2.5625     0.1688 N.2     
   8 C8            -4.9365    -1.9845     0.5531 C.1     
   9 C9            -6.0747    -2.2331     0.6978 C.1     
  10 C10           -7.4631    -2.5364     0.8742 C.ar    
  11 C11           -7.9039    -3.8623     0.8264 C.ar    
  12 C12          -10.1508    -3.1202     1.2160 C.ar    
  13 C13           -9.7191    -1.8071     1.2699 C.ar    
  14 C14           -8.3832    -1.5085     1.1008 C.ar    
  15 O15            1.0535    -0.5186     0.3357 O.2     
  16 C16           -1.2456     1.8411    -1.0137 C.3     
  17 C17           -0.9684     2.3690    -2.4248 C.3     
  18 C18            0.2170     3.3359    -2.3797 C.3     
  19 C19            1.4628     2.5957    -1.8875 C.3     
  20 C20            1.2118     2.0723    -0.4652 C.3     
  21 F21            0.4529     3.8442    -3.6616 F       
  22 C22           -9.2446    -4.1464     0.9975 C.ar    
  23 F23           -9.6737    -5.4266     0.9514 F       
  24 H24           -0.5446    -2.7679    -0.1420 H       
  25 H25           -7.1983    -4.6619     0.6558 H       
  26 H26          -11.1981    -3.3475     1.3495 H       
  27 H27          -10.4308    -1.0129     1.4405 H       
  28 H28           -8.0485    -0.4825     1.1437 H       
  29 H29           -2.0232     1.0784    -1.0551 H       
  30 H30           -1.5696     2.6618    -0.3737 H       
  31 H31           -0.7325     1.5348    -3.0855 H       
  32 H32           -1.8497     2.8910    -2.7976 H       
  33 H33           -0.0098     4.1570    -1.6997 H       
  34 H34            1.6758     1.7593    -2.5533 H       
  35 H35            2.3120     3.2790    -1.8779 H       
  36 H36            1.0893     2.9133     0.2173 H       
  37 H37            2.0559     1.4605    -0.1467 H       
@<TRIPOS>BOND
   1    1    2 am
   2    1   16 1
   3    1   20 1
   4    2    3 1
   5    2   15 2
   6    3    4 2
   7    3    5 1
   8    4    7 1
   9    4   24 1
  10    5    6 1
  11    6    7 2
  12    6    8 1
  13    8    9 3
  14    9   10 1
  15   10   11 ar
  16   10   14 ar
  17   11   22 ar
  18   11   25 1
  19   12   13 ar
  20   12   22 ar
  21   12   26 1
  22   13   14 ar
  23   13   27 1
  24   14   28 1
  25   16   17 1
  26   16   29 1
  27   16   30 1
  28   17   18 1
  29   17   31 1
  30   17   32 1
  31   18   19 1
  32   18   21 1
  33   18   33 1
  34   19   20 1
  35   19   34 1
  36   19   35 1
  37   20   36 1
  38   20   37 1
  39   22   23 1

#	End of record

