#	Name: ASD03240069
#	Creating user name:	WinNT
#	Creation time:	15. 06. 2019 20:34

#	Modifying user name:	WinNT
#	Modification time:	15. 06. 2019 20:34

#	Program:	/corina/corina34_cracker 3.40 0067  02.08.2006

@<TRIPOS>MOLECULE
ASD03240069
  64   69    0    0    0
SMALL
NO_CHARGES


@<TRIPOS>ATOM
   1 C1            -0.0169     1.3954     0.0097 C.ar    
   2 C2             0.0021    -0.0041     0.0020 C.ar    
   3 C3             1.1957     2.0941     0.0019 C.ar    
   4 C4             2.3797     1.3610    -0.0134 C.ar    
   5 C5             2.3121    -0.0426    -0.0202 C.ar    
   6 N6             1.1404    -0.6649    -0.0124 N.ar    
   7 C7             3.5624    -0.8359    -0.0364 C.ar    
   8 C8             3.6919     2.0511    -0.0227 C.ar    
   9 C9             3.9414     3.0673    -0.9436 C.ar    
  10 C10            5.1647     3.7061    -0.9476 C.ar    
  11 C11            6.1423     3.3397    -0.0401 C.ar    
  12 C12            5.9003     2.3320     0.8761 C.ar    
  13 C13            4.6787     1.6901     0.8932 C.ar    
  14 C14            3.6309    -2.0492     0.6484 C.ar    
  15 C15            4.7988    -2.7837     0.6295 C.ar    
  16 C16            5.9004    -2.3191    -0.0667 C.ar    
  17 C17            5.8388    -1.1163    -0.7474 C.ar    
  18 C18            4.6747    -0.3757    -0.7413 C.ar    
  19 C19            7.1728    -3.1264    -0.0831 C.3     
  20 N20            7.1499    -4.0534    -1.2224 N.3     
  21 C21            8.4614    -4.6859    -1.4127 C.3     
  22 C22            8.4420    -5.5297    -2.6893 C.3     
  23 C23            7.3513    -6.5981    -2.5726 C.3     
  24 C24            6.0031    -5.9151    -2.3267 C.3     
  25 C25            6.0933    -5.0602    -1.0605 C.3     
  26 N26            7.2889    -7.3717    -3.8151 N.am    
  27 C27            7.4918    -8.7448    -3.9315 C.ar    
  28 C28            7.3397    -9.0620    -5.2827 C.ar    
  29 N29            7.0492    -7.8719    -5.9454 N.am    
  30 C30            7.0198    -6.8775    -5.0383 C.2     
  31 C31            7.7890    -9.7437    -3.0169 C.ar    
  32 C32            7.9335   -11.0482    -3.4464 C.ar    
  33 C33            7.7828   -11.3628    -4.7862 C.ar    
  34 C34            7.4866   -10.3748    -5.7045 C.ar    
  35 O35            6.7931    -5.7081    -5.2873 O.2     
  36 Cl36          -1.4964    -0.8805     0.0122 Cl      
  37 C37           -1.2616     2.1034     0.0195 C.1     
  38 N38           -2.2489     2.6652     0.0272 N.1     
  39 H39            1.2129     3.1740     0.0072 H       
  40 H40            3.1790     3.3540    -1.6529 H       
  41 H41            5.3593     4.4934    -1.6609 H       
  42 H42            7.0983     3.8421    -0.0471 H       
  43 H43            6.6674     2.0498     1.5821 H       
  44 H44            4.4909     0.9034     1.6090 H       
  45 H45            2.7717    -2.4127     1.1925 H       
  46 H46            4.8532    -3.7231     1.1597 H       
  47 H47            6.7022    -0.7587    -1.2888 H       
  48 H48            4.6277     0.5630    -1.2734 H       
  49 H49            8.0272    -2.4561    -0.1772 H       
  50 H50            7.2558    -3.6928     0.8445 H       
  51 H51            9.2274    -3.9152    -1.4984 H       
  52 H52            8.6837    -5.3252    -0.5582 H       
  53 H53            8.2334    -4.8888    -3.5459 H       
  54 H54            9.4107    -6.0115    -2.8218 H       
  55 H55            7.5802    -7.2628    -1.7396 H       
  56 H56            5.7562    -5.2803    -3.1776 H       
  57 H57            5.2293    -6.6723    -2.2001 H       
  58 H58            6.3266    -5.6977    -0.2077 H       
  59 H59            5.1392    -4.5613    -0.8905 H       
  60 H60            6.8911    -7.7764    -6.8977 H       
  61 H61            7.9077    -9.5020    -1.9710 H       
  62 H62            8.1654   -11.8263    -2.7342 H       
  63 H63            7.8972   -12.3853    -5.1146 H       
  64 H64            7.3694   -10.6240    -6.7488 H       
@<TRIPOS>BOND
   1    1    2 ar
   2    1    3 ar
   3    1   37 1
   4    2   36 1
   5    2    6 ar
   6    3    4 ar
   7    3   39 1
   8    4    5 ar
   9    4    8 1
  10    5    6 ar
  11    5    7 1
  12    7   14 ar
  13    7   18 ar
  14    8    9 ar
  15    8   13 ar
  16    9   10 ar
  17    9   40 1
  18   10   11 ar
  19   10   41 1
  20   11   12 ar
  21   11   42 1
  22   12   13 ar
  23   12   43 1
  24   13   44 1
  25   14   15 ar
  26   14   45 1
  27   15   16 ar
  28   15   46 1
  29   16   17 ar
  30   16   19 1
  31   17   18 ar
  32   17   47 1
  33   18   48 1
  34   19   20 1
  35   19   49 1
  36   19   50 1
  37   20   21 1
  38   20   25 1
  39   21   22 1
  40   21   51 1
  41   21   52 1
  42   22   23 1
  43   22   53 1
  44   22   54 1
  45   23   24 1
  46   23   26 1
  47   23   55 1
  48   24   25 1
  49   24   56 1
  50   24   57 1
  51   25   58 1
  52   25   59 1
  53   26   27 1
  54   26   30 am
  55   27   28 ar
  56   27   31 ar
  57   28   29 1
  58   28   34 ar
  59   29   30 am
  60   29   60 1
  61   30   35 2
  62   31   32 ar
  63   31   61 1
  64   32   33 ar
  65   32   62 1
  66   33   34 ar
  67   33   63 1
  68   34   64 1
  69   37   38 3

#	End of record

