#	Name: ASD03091437
#	Creating user name:	WinNT
#	Creation time:	15. 06. 2019 20:30

#	Modifying user name:	WinNT
#	Modification time:	15. 06. 2019 20:30

#	Program:	/corina/corina34_cracker 3.40 0067  02.08.2006

@<TRIPOS>MOLECULE
ASD03091437
  48   51    0    0    0
SMALL
NO_CHARGES


@<TRIPOS>ATOM
   1 C1            -0.0922     1.5034    -0.4854 C.2     
   2 C2            -0.0555    -0.0031    -0.4705 C.3     
   3 O3             0.8189     2.1272    -0.9874 O.2     
   4 N4            -1.1399     2.1573     0.0541 N.am    
   5 C5            -1.1214     3.5552     0.1455 C.ar    
   6 C6            -2.2989     4.2765    -0.0009 C.ar    
   7 C7            -2.2801     5.6541     0.0897 C.ar    
   8 C8            -1.0849     6.3178     0.3271 C.ar    
   9 C9             0.0920     5.5976     0.4730 C.ar    
  10 C10            0.0735     4.2196     0.3882 C.ar    
  11 O11           -1.0671     7.6742     0.4162 O.3     
  12 C12           -0.4118     8.3689    -0.5515 C.ar    
  13 C13            0.1095     7.7029    -1.6512 C.ar    
  14 C14            0.7752     8.4088    -2.6342 C.ar    
  15 C15            0.9226     9.7834    -2.5219 C.ar    
  16 C16            0.4014    10.4494    -1.4224 C.ar    
  17 C17           -0.2693     9.7445    -0.4421 C.ar    
  18 O18            1.5784    10.4781    -3.4895 O.3     
  19 C19            1.6930    11.8911    -3.3091 C.3     
  20 F20            2.3850    12.1550    -2.1223 F       
  21 F21            2.3904    12.4440    -4.3885 F       
  22 F22            0.4156    12.4575    -3.2399 F       
  23 N23            4.7932    -1.7859    -2.7151 N.pl3   
  24 C24            5.5754    -1.8118    -1.5928 C.2     
  25 C25            4.8599    -1.4186    -0.5272 C.2     
  26 C26            3.5091    -1.1162    -1.0064 C.ar    
  27 C27            2.3373    -0.6726    -0.3901 C.ar    
  28 C28            1.2089    -0.4815    -1.1364 C.ar    
  29 C29            1.2177    -0.7249    -2.5031 C.ar    
  30 C30            2.3625    -1.1634    -3.1313 C.ar    
  31 C31            3.5231    -1.3647    -2.3909 C.ar    
  32 H32           -0.0796    -0.3569     0.5602 H       
  33 H33           -0.9195    -0.3929    -1.0087 H       
  34 H34           -1.9068     1.6602     0.3791 H       
  35 H35           -3.2291     3.7600    -0.1860 H       
  36 H36           -3.1958     6.2152    -0.0244 H       
  37 H37            1.0221     6.1148     0.6570 H       
  38 H38            0.9889     3.6588     0.5066 H       
  39 H39           -0.0049     6.6326    -1.7385 H       
  40 H40            1.1814     7.8903    -3.4901 H       
  41 H41            0.5165    11.5197    -1.3349 H       
  42 H42           -0.6790    10.2637     0.4117 H       
  43 H43            5.0903    -2.0247    -3.6071 H       
  44 H44            6.6144    -2.1054    -1.5678 H       
  45 H45            5.2132    -1.3401     0.4904 H       
  46 H46            2.3227    -0.4820     0.6729 H       
  47 H47            0.3178    -0.5692    -3.0796 H       
  48 H48            2.3592    -1.3503    -4.1950 H       
@<TRIPOS>BOND
   1    1    2 1
   2    1    3 2
   3    1    4 am
   4    2   28 1
   5    2   32 1
   6    2   33 1
   7    4    5 1
   8    4   34 1
   9    5    6 ar
  10    5   10 ar
  11    6    7 ar
  12    6   35 1
  13    7    8 ar
  14    7   36 1
  15    8    9 ar
  16    8   11 1
  17    9   10 ar
  18    9   37 1
  19   10   38 1
  20   11   12 1
  21   12   13 ar
  22   12   17 ar
  23   13   14 ar
  24   13   39 1
  25   14   15 ar
  26   14   40 1
  27   15   16 ar
  28   15   18 1
  29   16   17 ar
  30   16   41 1
  31   17   42 1
  32   18   19 1
  33   19   20 1
  34   19   21 1
  35   19   22 1
  36   23   24 1
  37   23   31 1
  38   23   43 1
  39   24   25 2
  40   24   44 1
  41   25   26 1
  42   25   45 1
  43   26   27 ar
  44   26   31 ar
  45   27   28 ar
  46   27   46 1
  47   28   29 ar
  48   29   30 ar
  49   29   47 1
  50   30   31 ar
  51   30   48 1

#	End of record

