#	Name: ASD01913807
#	Creating user name:	WinNT
#	Creation time:	15. 06. 2019 20:02

#	Modifying user name:	WinNT
#	Modification time:	15. 06. 2019 20:02

#	Program:	/corina/corina34_cracker 3.40 0067  02.08.2006

@<TRIPOS>MOLECULE
ASD01913807
  38   40    0    0    0
SMALL
NO_CHARGES


@<TRIPOS>ATOM
   1 C1            -0.0230     1.4277    -0.0308 C.ar    
   2 C2            -0.0019    -0.0041    -0.0265 C.1     
   3 C3             0.0153    -1.1780    -0.0231 C.1     
   4 C4             0.0364    -2.6098    -0.0189 C.ar    
   5 C5            -1.1344    -3.3384     0.2393 C.ar    
   6 C6             0.1560    -5.3344    -0.0290 C.ar    
   7 N7             1.2431    -4.6188    -0.2749 N.ar    
   8 C8             1.2214    -3.3021    -0.2774 C.ar    
   9 C9            -1.0636    -4.7171     0.2319 C.ar    
  10 N10            0.2331    -6.7252    -0.0385 N.am    
  11 C11           -0.8122    -7.5637    -0.0339 C.2     
  12 O12           -0.4687    -8.8566    -0.0457 O.3     
  13 C13            0.9835    -8.9733    -0.0606 C.3     
  14 C14            1.4751    -7.5130    -0.0616 C.3     
  15 C15            1.4753    -9.7090     1.1876 C.3     
  16 C16            1.4508    -9.6924    -1.3276 C.3     
  17 O17           -1.9664    -7.1844    -0.0202 O.2     
  18 C18            1.1477     2.1456    -0.2889 C.ar    
  19 C19            1.1223     3.5246    -0.2918 C.ar    
  20 C20           -0.0607     4.1995    -0.0390 C.ar    
  21 C21           -1.2279     3.4930     0.2182 C.ar    
  22 C22           -1.2158     2.1125     0.2176 C.ar    
  23 F23           -0.0787     5.5503    -0.0425 F       
  24 F24           -2.3782     4.1573     0.4644 F       
  25 H25           -2.0678    -2.8333     0.4392 H       
  26 H26            2.1284    -2.7525    -0.4816 H       
  27 H27           -1.9449    -5.3100     0.4269 H       
  28 H28            2.0509    -7.3034    -0.9632 H       
  29 H29            2.0688    -7.3082     0.8292 H       
  30 H30            1.0607   -10.7170     1.2022 H       
  31 H31            2.5637    -9.7640     1.1717 H       
  32 H32            1.1516    -9.1701     2.0781 H       
  33 H33            1.1100    -9.1419    -2.2045 H       
  34 H34            2.5394    -9.7475    -1.3336 H       
  35 H35            1.0359   -10.7002    -1.3475 H       
  36 H36            2.0712     1.6213    -0.4854 H       
  37 H37            2.0270     4.0796    -0.4912 H       
  38 H38           -2.1238     1.5631     0.4177 H       
@<TRIPOS>BOND
   1    1    2 1
   2    1   18 ar
   3    1   22 ar
   4    2    3 3
   5    3    4 1
   6    4    5 ar
   7    4    8 ar
   8    5    9 ar
   9    5   25 1
  10    6    7 ar
  11    6   10 1
  12    6    9 ar
  13    7    8 ar
  14    8   26 1
  15    9   27 1
  16   10   11 am
  17   10   14 1
  18   11   12 1
  19   11   17 2
  20   12   13 1
  21   13   14 1
  22   13   15 1
  23   13   16 1
  24   14   28 1
  25   14   29 1
  26   15   30 1
  27   15   31 1
  28   15   32 1
  29   16   33 1
  30   16   34 1
  31   16   35 1
  32   18   19 ar
  33   18   36 1
  34   19   20 ar
  35   19   37 1
  36   20   21 ar
  37   20   23 1
  38   21   22 ar
  39   21   24 1
  40   22   38 1

#	End of record

