#	Name: ASD03331420
#	Creating user name:	WinNT
#	Creation time:	15. 06. 2019 20:39

#	Modifying user name:	WinNT
#	Modification time:	15. 06. 2019 20:39

#	Program:	/corina/corina34_cracker 3.40 0067  02.08.2006

@<TRIPOS>MOLECULE
ASD03331420
  69   72    0    0    0
SMALL
NO_CHARGES


@<TRIPOS>ATOM
   1 N1            -1.0197     1.2091    -0.7731 N.am    
   2 C2            -1.0932    -0.2582    -0.7533 C.3     
   3 C3            -1.9315    -0.7260    -1.9471 C.3     
   4 C4            -1.3465    -0.1433    -3.2356 C.3     
   5 C5            -1.4004     1.3850    -3.1769 C.3     
   6 C6            -0.5561     1.8767    -1.9970 C.3     
   7 C7             0.0852    -0.5899    -3.3839 C.2     
   8 O8             0.9885     0.1543    -3.0660 O.2     
   9 N9             0.3617    -1.8162    -3.8698 N.am    
  10 N10           -2.1282    -0.6168    -4.3858 N.3     
  11 C11           -1.6342    -0.0262    -5.6369 C.3     
  12 C12           -2.5202    -0.4790    -6.7992 C.3     
  13 C13           -2.0058     0.1360    -8.1023 C.3     
  14 F14           -0.6902    -0.2828    -8.3281 F       
  15 F15           -2.8160    -0.2780    -9.1651 F       
  16 F16           -2.0409     1.5312    -8.0052 F       
  17 C17           -1.3760     1.9292     0.3091 C.2     
  18 O18           -1.8428     1.3714     1.2839 O.2     
  19 N19           -1.6070     5.5620     0.4731 N.pl3   
  20 C20           -2.1723     4.3337     0.5707 C.2     
  21 C21           -1.2001     3.3916     0.3111 C.2     
  22 C22            0.0024     4.0972     0.0462 C.2     
  23 C23           -0.2771     5.4214     0.1525 C.2     
  24 C24           -3.6137     4.0478     0.9051 C.3     
  25 C25           -4.4352     3.9932    -0.3845 C.3     
  26 O26           -5.8020     3.7221    -0.0674 O.3     
  27 C27            0.6861     6.5263    -0.0431 C.ar    
  28 C28            1.9255     6.4982     0.6005 C.ar    
  29 C29            2.8203     7.5326     0.4133 C.ar    
  30 C30            2.4909     8.5958    -0.4104 C.ar    
  31 C31            1.2636     8.6287    -1.0503 C.ar    
  32 C32            0.3630     7.5980    -0.8757 C.ar    
  33 Cl33           3.6211     9.8931    -0.6411 Cl      
  34 Cl34           2.3393     5.1661     1.6338 Cl      
  35 C35           -2.2728     6.7806     0.6628 C.ar    
  36 C36           -2.0787     7.5044     1.8316 C.ar    
  37 C37           -2.7357     8.7052     2.0159 C.ar    
  38 C38           -3.5868     9.1870     1.0369 C.ar    
  39 C39           -3.7822     8.4672    -0.1288 C.ar    
  40 C40           -3.1231     7.2687    -0.3203 C.ar    
  41 Cl41          -4.4111    10.6967     1.2715 Cl      
  42 H42           -0.0888    -0.6754    -0.8261 H       
  43 H43           -1.5618    -0.5881     0.1740 H       
  44 H44           -1.9142    -1.8146    -1.9994 H       
  45 H45           -2.9592    -0.3833    -1.8266 H       
  46 H46           -1.0052     1.7989    -4.1046 H       
  47 H47           -2.4331     1.7078    -3.0448 H       
  48 H48           -0.6703     2.9555    -1.8905 H       
  49 H49            0.4920     1.6336    -2.1713 H       
  50 H50           -0.3563    -2.3839    -4.1910 H       
  51 H51            1.2787    -2.1312    -3.8982 H       
  52 H52           -2.1244    -1.6245    -4.4354 H       
  53 H53           -1.6616     1.0608    -5.5612 H       
  54 H54           -0.6092    -0.3525    -5.8129 H       
  55 H55           -2.4929    -1.5660    -6.8749 H       
  56 H56           -3.5453    -0.1527    -6.6232 H       
  57 H57            0.9609     3.6620    -0.1953 H       
  58 H58           -3.6839     3.0904     1.4215 H       
  59 H59           -4.0007     4.8373     1.5493 H       
  60 H60           -4.3650     4.9505    -0.9008 H       
  61 H61           -4.0482     3.2037    -1.0287 H       
  62 H62           -6.3825     3.6733    -0.8392 H       
  63 H63            3.7789     7.5127     0.9105 H       
  64 H64            1.0123     9.4609    -1.6912 H       
  65 H65           -0.5920     7.6229    -1.3795 H       
  66 H66           -1.4149     7.1286     2.5961 H       
  67 H67           -2.5853     9.2685     2.9251 H       
  68 H68           -4.4472     8.8451    -0.8913 H       
  69 H69           -3.2722     6.7096    -1.2322 H       
@<TRIPOS>BOND
   1    1    2 1
   2    1    6 1
   3    1   17 am
   4    2    3 1
   5    2   42 1
   6    2   43 1
   7    3    4 1
   8    3   44 1
   9    3   45 1
  10    4    5 1
  11    4    7 1
  12    4   10 1
  13    5    6 1
  14    5   46 1
  15    5   47 1
  16    6   48 1
  17    6   49 1
  18    7    8 2
  19    7    9 am
  20    9   50 1
  21    9   51 1
  22   10   11 1
  23   10   52 1
  24   11   12 1
  25   11   53 1
  26   11   54 1
  27   12   13 1
  28   12   55 1
  29   12   56 1
  30   13   14 1
  31   13   15 1
  32   13   16 1
  33   17   18 2
  34   17   21 1
  35   19   20 1
  36   19   23 1
  37   19   35 1
  38   20   21 2
  39   20   24 1
  40   21   22 1
  41   22   23 2
  42   22   57 1
  43   23   27 1
  44   24   25 1
  45   24   58 1
  46   24   59 1
  47   25   26 1
  48   25   60 1
  49   25   61 1
  50   26   62 1
  51   27   28 ar
  52   27   32 ar
  53   28   29 ar
  54   28   34 1
  55   29   30 ar
  56   29   63 1
  57   30   31 ar
  58   30   33 1
  59   31   32 ar
  60   31   64 1
  61   32   65 1
  62   35   36 ar
  63   35   40 ar
  64   36   37 ar
  65   36   66 1
  66   37   38 ar
  67   37   67 1
  68   38   39 ar
  69   38   41 1
  70   39   40 ar
  71   39   68 1
  72   40   69 1

#	End of record

