#	Name: ASD00310126
#	Creating user name:	WinNT
#	Creation time:	15. 06. 2019 18:33

#	Modifying user name:	WinNT
#	Modification time:	15. 06. 2019 18:33

#	Program:	/corina/corina34_cracker 3.40 0067  02.08.2006

@<TRIPOS>MOLECULE
ASD00310126
  35   37    0    0    0
SMALL
NO_CHARGES


@<TRIPOS>ATOM
   1 N1            -0.0163     1.3499     0.0095 N.pl3   
   2 C2             0.0021    -0.0041     0.0020 C.2     
   3 C3             1.2922    -0.4483    -0.0127 C.2     
   4 C4             2.1476     0.7538    -0.0144 C.ar    
   5 C5             3.5233     0.9581    -0.0268 C.ar    
   6 C6             4.0243     2.2535    -0.0251 C.ar    
   7 C7             3.1470     3.3433    -0.0108 C.ar    
   8 C8             1.7854     3.1434     0.0015 C.ar    
   9 C9             1.2698     1.8501    -0.0001 C.ar    
  10 C10            1.7402    -1.8454    -0.0240 C.2     
  11 O11            2.9286    -2.1027    -0.0364 O.2     
  12 O12            0.8342    -2.8441    -0.0208 O.3     
  13 C13            8.1392     2.8946    -0.0602 C.ar    
  14 N14            7.3801     3.5354    -0.9373 N.ar    
  15 C15            6.0709     3.3583    -0.9579 C.ar    
  16 C16            5.4904     2.4817    -0.0378 C.ar    
  17 C17            6.3252     1.8256     0.8703 C.ar    
  18 N18            7.6258     2.0555     0.8278 N.ar    
  19 N19            9.5072     3.1034    -0.0755 N.pl3   
  20 C20           10.0971     4.0222    -1.0523 C.3     
  21 C21           10.3655     2.4056     0.8851 C.3     
  22 Cl22           3.7807     4.9596    -0.0081 Cl      
  23 H23           -0.8206     1.8921     0.0164 H       
  24 H24           -0.8729    -0.6372     0.0075 H       
  25 H25            4.1978     0.1147    -0.0374 H       
  26 H26            1.1160     3.9909     0.0124 H       
  27 H27            1.1772    -3.7482    -0.0286 H       
  28 H28            5.4582     3.8841    -1.6752 H       
  29 H29            5.9135     1.1408     1.5969 H       
  30 H30            9.6801     5.0193    -0.9111 H       
  31 H31           11.1775     4.0570    -0.9121 H       
  32 H32            9.8725     3.6739    -2.0604 H       
  33 H33           10.6895     1.4557     0.4597 H       
  34 H34           11.2376     3.0207     1.1068 H       
  35 H35            9.8080     2.2211     1.8034 H       
@<TRIPOS>BOND
   1    1    2 1
   2    1    9 1
   3    1   23 1
   4    2    3 2
   5    2   24 1
   6    3    4 1
   7    3   10 1
   8    4    5 ar
   9    4    9 ar
  10    5    6 ar
  11    5   25 1
  12    6    7 ar
  13    6   16 1
  14    7    8 ar
  15    7   22 1
  16    8    9 ar
  17    8   26 1
  18   10   11 2
  19   10   12 1
  20   12   27 1
  21   13   14 ar
  22   13   18 ar
  23   13   19 1
  24   14   15 ar
  25   15   16 ar
  26   15   28 1
  27   16   17 ar
  28   17   18 ar
  29   17   29 1
  30   19   20 1
  31   19   21 1
  32   20   30 1
  33   20   31 1
  34   20   32 1
  35   21   33 1
  36   21   34 1
  37   21   35 1

#	End of record

