#	Name: ASD02198375
#	Creating user name:	WinNT
#	Creation time:	15. 06. 2019 20:19

#	Modifying user name:	WinNT
#	Modification time:	15. 06. 2019 20:19

#	Program:	/corina/corina34_cracker 3.40 0067  02.08.2006

@<TRIPOS>MOLECULE
ASD02198375
  29   31    0    0    0
SMALL
NO_CHARGES


@<TRIPOS>ATOM
   1 C1            -0.1414     1.6100     0.3871 C.2     
   2 C2            -0.2044     0.2777     0.3737 C.2     
   3 C3             1.1347     2.1348     0.2762 C.2     
   4 C4             2.1080     1.2286     0.1727 C.2     
   5 S5             1.4159    -0.3878     0.2136 S.3     
   6 S6             3.8245     1.5950     0.0176 S.o2    
   7 N7             4.4490     1.6748     1.5493 N.am    
   8 C8             4.3786     0.5644     2.3896 C.ar    
   9 C9             4.1672     0.7333     3.7762 C.ar    
  10 C10            4.0995    -0.4124     4.6060 C.ar    
  11 C11            4.2429    -1.6907     4.0420 C.ar    
  12 C12            4.4461    -1.8229     2.7021 C.ar    
  13 C13            4.5088    -0.7062     1.8734 C.ar    
  14 N14            4.0322     1.9501     4.3092 N.ar    
  15 C15            3.8363     2.1134     5.5953 C.ar    
  16 C16            3.7597     1.0302     6.4677 C.ar    
  17 C17            3.8887    -0.2420     5.9873 C.ar    
  18 O18            4.4220     0.4637    -0.6008 O.2     
  19 O19            3.9077     2.9083    -0.5185 O.2     
  20 H20           -1.0200     2.2322     0.4735 H       
  21 H21           -1.1114    -0.3036     0.4499 H       
  22 H22            1.3275     3.1974     0.2733 H       
  23 H23            4.8638     2.4940     1.8619 H       
  24 H24            4.1924    -2.5676     4.6703 H       
  25 H25            4.5559    -2.8089     2.2754 H       
  26 H26            4.6709    -0.8371     0.8137 H       
  27 H27            3.7319     3.1138     5.9886 H       
  28 H28            3.5982     1.1960     7.5226 H       
  29 H29            3.8317    -1.0936     6.6492 H       
@<TRIPOS>BOND
   1    1    2 2
   2    1    3 1
   3    1   20 1
   4    2    5 1
   5    2   21 1
   6    3    4 2
   7    3   22 1
   8    4    5 1
   9    4    6 1
  10    6    7 am
  11    6   18 2
  12    6   19 2
  13    7    8 1
  14    7   23 1
  15    8    9 ar
  16    8   13 ar
  17    9   10 ar
  18    9   14 ar
  19   10   11 ar
  20   10   17 ar
  21   11   12 ar
  22   11   24 1
  23   12   13 ar
  24   12   25 1
  25   13   26 1
  26   14   15 ar
  27   15   16 ar
  28   15   27 1
  29   16   17 ar
  30   16   28 1
  31   17   29 1

#	End of record

