#	Name: ASD01811281
#	Creating user name:	WinNT
#	Creation time:	15. 06. 2019 19:26

#	Modifying user name:	WinNT
#	Modification time:	15. 06. 2019 19:26

#	Program:	/corina/corina34_cracker 3.40 0067  02.08.2006

@<TRIPOS>MOLECULE
ASD01811281
  55   58    0    0    0
SMALL
NO_CHARGES


@<TRIPOS>ATOM
   1 C1             3.3550    -7.1084    -0.3365 C.ar    
   2 C2             2.4137    -6.0832    -0.2238 C.ar    
   3 C3             2.8331    -4.7710    -0.1513 C.ar    
   4 C4             4.1830    -4.4697    -0.1900 C.ar    
   5 C5             5.1211    -5.4806    -0.3016 C.ar    
   6 C6             4.7157    -6.7971    -0.3750 C.ar    
   7 N7             6.5827    -0.9848    -0.0561 N.am    
   8 C8             5.9564    -1.3795     1.2131 C.3     
   9 C9             5.5286    -2.8473     1.1164 C.3     
  10 C10            4.6335    -3.0338    -0.1108 C.3     
  11 C11            5.4174    -2.6749    -1.3753 C.3     
  12 C12            5.8439    -1.2051    -1.3069 C.3     
  13 C13            7.8091    -0.4263    -0.0722 C.2     
  14 C14            8.4833    -0.0860     1.1990 C.ar    
  15 C15            9.8474    -0.3409     1.3581 C.ar    
  16 C16           10.4780    -0.0238     2.5444 C.ar    
  17 C17            9.7659     0.5471     3.5810 C.ar    
  18 C18            8.4020     0.8067     3.4354 C.ar    
  19 C19            7.7606     0.4950     2.2389 C.ar    
  20 O20            8.3610    -0.2022    -1.1318 O.2     
  21 C21            7.6408     1.4178     4.5472 C.2     
  22 N22            8.1166     1.7667     5.7218 N.2     
  23 C23           10.4627     0.8900     4.8725 C.3     
  24 C24            2.9272    -8.4731    -0.4064 C.1     
  25 N25            2.5877    -9.5558    -0.4618 N.1     
  26 N26            7.1749     2.2658     6.4403 N.2     
  27 C27            6.0527     2.2645     5.7719 C.2     
  28 N28            6.3089     1.7325     4.5459 N.pl3   
  29 C29            4.7201     2.7659     6.2657 C.3     
  30 C30            4.3651     2.0631     7.5776 C.3     
  31 H31            1.3598    -6.3170    -0.1939 H       
  32 H32            2.1062    -3.9770    -0.0645 H       
  33 H33            6.1732    -5.2384    -0.3313 H       
  34 H34            5.4490    -7.5852    -0.4617 H       
  35 H35            6.6723    -1.2603     2.0263 H       
  36 H36            5.0822    -0.7555     1.3987 H       
  37 H37            6.4123    -3.4783     1.0215 H       
  38 H38            4.9772    -3.1254     2.0146 H       
  39 H39            3.7624    -2.3840    -0.0271 H       
  40 H40            6.3021    -3.3075    -1.4468 H       
  41 H41            4.7867    -2.8303    -2.2507 H       
  42 H42            4.9605    -0.5670    -1.3267 H       
  43 H43            6.4856    -0.9709    -2.1563 H       
  44 H44           10.4098    -0.7875     0.5514 H       
  45 H45           11.5328    -0.2232     2.6626 H       
  46 H46            6.7068     0.6986     2.1194 H       
  47 H47           10.8482     1.9081     4.8182 H       
  48 H48            9.7556     0.8128     5.6985 H       
  49 H49           11.2883     0.1970     5.0350 H       
  50 H50            5.6767     1.5981     3.8226 H       
  51 H51            4.7759     3.8415     6.4332 H       
  52 H52            3.9533     2.5536     5.5207 H       
  53 H53            3.4012     2.4258     7.9347 H       
  54 H54            4.3092     0.9875     7.4100 H       
  55 H55            5.1318     2.2755     8.3226 H       
@<TRIPOS>BOND
   1    1    2 ar
   2    1    6 ar
   3    1   24 1
   4    2    3 ar
   5    2   31 1
   6    3    4 ar
   7    3   32 1
   8    4    5 ar
   9    4   10 1
  10    5    6 ar
  11    5   33 1
  12    6   34 1
  13    7    8 1
  14    7   12 1
  15    7   13 am
  16    8    9 1
  17    8   35 1
  18    8   36 1
  19    9   10 1
  20    9   37 1
  21    9   38 1
  22   10   11 1
  23   10   39 1
  24   11   12 1
  25   11   40 1
  26   11   41 1
  27   12   42 1
  28   12   43 1
  29   13   14 1
  30   13   20 2
  31   14   15 ar
  32   14   19 ar
  33   15   16 ar
  34   15   44 1
  35   16   17 ar
  36   16   45 1
  37   17   18 ar
  38   17   23 1
  39   18   19 ar
  40   18   21 1
  41   19   46 1
  42   21   22 2
  43   21   28 1
  44   22   26 1
  45   23   47 1
  46   23   48 1
  47   23   49 1
  48   24   25 3
  49   26   27 2
  50   27   28 1
  51   27   29 1
  52   28   50 1
  53   29   30 1
  54   29   51 1
  55   29   52 1
  56   30   53 1
  57   30   54 1
  58   30   55 1

#	End of record

