#	Name: ASD04880215
#	Creating user name:	WinNT
#	Creation time:	15. 06. 2019 20:53

#	Modifying user name:	WinNT
#	Modification time:	15. 06. 2019 20:53

#	Program:	/corina/corina34_cracker 3.40 0067  02.08.2006

@<TRIPOS>MOLECULE
ASD04880215
  52   55    0    0    0
SMALL
NO_CHARGES


@<TRIPOS>ATOM
   1 C1            -0.1007     1.5400    -0.0241 C.3     
   2 C2            -0.0255     0.0004    -0.0079 C.3     
   3 N3            -0.7028    -0.3651     1.2463 N.am    
   4 N4            -1.1228     0.7986     1.8873 N.2     
   5 C5            -0.8306     1.8826     1.2550 C.2     
   6 C6            -1.1571     3.2466     1.7089 C.ar    
   7 C7            -0.8874    -1.6206     1.7005 C.2     
   8 O8            -0.5725    -2.5698     1.0088 O.2     
   9 C9            -1.4725    -1.8436     3.0394 C.ar    
  10 C10           -1.7993    -3.1373     3.4540 C.ar    
  11 C11           -2.3464    -3.3475     4.7040 C.ar    
  12 C12           -2.5741    -2.2825     5.5531 C.ar    
  13 C13           -2.2517    -0.9837     5.1516 C.ar    
  14 C14           -1.6942    -0.7650     3.8929 C.ar    
  15 C15           -2.4890     0.1197     6.0330 C.1     
  16 C16           -0.7869     4.3494     0.9355 C.ar    
  17 N17           -2.6771     0.9950     6.7322 N.1     
  18 C18            1.2830     2.1370    -0.0192 C.ar    
  19 C19            1.6886     2.9498    -1.0613 C.ar    
  20 C20            2.9575     3.4978    -1.0570 C.ar    
  21 C21            3.8216     3.2329    -0.0098 C.ar    
  22 C22            3.4153     2.4195     1.0326 C.ar    
  23 C23            2.1444     1.8762     1.0301 C.ar    
  24 Br24           5.5579     3.9819    -0.0037 Br      
  25 C25           -1.0934     5.6248     1.3621 C.ar    
  26 C26           -1.7685     5.8159     2.5585 C.ar    
  27 C27           -2.1409     4.7205     3.3352 C.ar    
  28 C28           -1.8429     3.4394     2.9114 C.ar    
  29 O29           -2.8024     4.9120     4.5080 O.3     
  30 C30           -3.1534     3.7443     5.2531 C.3     
  31 O31           -2.0672     7.0751     2.9746 O.3     
  32 C32           -1.6557     8.1521     2.1304 C.3     
  33 H33           -0.6623     1.8863    -0.8918 H       
  34 H34           -0.5530    -0.4184    -0.8648 H       
  35 H35            1.0123    -0.3328     0.0054 H       
  36 H36           -1.6238    -3.9747     2.7950 H       
  37 H37           -2.5977    -4.3494     5.0191 H       
  38 H38           -3.0027    -2.4539     6.5294 H       
  39 H39           -1.4430     0.2369     3.5774 H       
  40 H40           -0.2605     4.2034     0.0038 H       
  41 H41            1.0140     3.1563    -1.8790 H       
  42 H42            3.2744     4.1326    -1.8713 H       
  43 H43            4.0897     2.2121     1.8503 H       
  44 H44            1.8271     1.2411     1.8440 H       
  45 H45           -0.8066     6.4766     0.7633 H       
  46 H46           -2.1314     2.5896     3.5123 H       
  47 H47           -3.8036     3.1104     4.6502 H       
  48 H48           -2.2492     3.1939     5.5133 H       
  49 H49           -3.6750     4.0377     6.1641 H       
  50 H50           -0.5719     8.1307     2.0164 H       
  51 H51           -2.1261     8.0475     1.1527 H       
  52 H52           -1.9553     9.0996     2.5782 H       
@<TRIPOS>BOND
   1    1    2 1
   2    1   18 1
   3    1    5 1
   4    1   33 1
   5    2    3 1
   6    2   34 1
   7    2   35 1
   8    3    4 1
   9    3    7 am
  10    4    5 2
  11    5    6 1
  12    6   16 ar
  13    6   28 ar
  14    7    8 2
  15    7    9 1
  16    9   10 ar
  17    9   14 ar
  18   10   11 ar
  19   10   36 1
  20   11   12 ar
  21   11   37 1
  22   12   13 ar
  23   12   38 1
  24   13   14 ar
  25   13   15 1
  26   14   39 1
  27   15   17 3
  28   16   25 ar
  29   16   40 1
  30   18   19 ar
  31   18   23 ar
  32   19   20 ar
  33   19   41 1
  34   20   21 ar
  35   20   42 1
  36   21   22 ar
  37   21   24 1
  38   22   23 ar
  39   22   43 1
  40   23   44 1
  41   25   26 ar
  42   25   45 1
  43   26   27 ar
  44   26   31 1
  45   27   28 ar
  46   27   29 1
  47   28   46 1
  48   29   30 1
  49   30   47 1
  50   30   48 1
  51   30   49 1
  52   31   32 1
  53   32   50 1
  54   32   51 1
  55   32   52 1

#	End of record

