#	Name: ASD01884994
#	Creating user name:	WinNT
#	Creation time:	15. 06. 2019 19:49

#	Modifying user name:	WinNT
#	Modification time:	15. 06. 2019 19:49

#	Program:	/corina/corina34_cracker 3.40 0067  02.08.2006

@<TRIPOS>MOLECULE
ASD01884994
  51   55    0    0    0
SMALL
NO_CHARGES


@<TRIPOS>ATOM
   1 C1            -0.0166     1.3759     0.0096 C.ar    
   2 C2             0.0021    -0.0041     0.0020 C.ar    
   3 C3            -1.1979    -0.7160     0.0101 C.ar    
   4 C4            -2.4120    -0.0302     0.0259 C.ar    
   5 C5            -2.4242     1.3491     0.0334 C.ar    
   6 C6            -1.2299     2.0555     0.0307 C.ar    
   7 C7            -1.1822    -2.1974     0.0015 C.2     
   8 C8            -1.6680    -2.9068     1.0838 C.2     
   9 C9            -0.6746    -2.9006    -1.1181 C.2     
  10 C10           -0.6621    -4.2467    -1.1243 C.2     
  11 N11           -1.1351    -4.9554    -0.0576 N.pl3   
  12 C12           -1.6402    -4.3112     1.0460 C.2     
  13 C13           -1.2437    -6.2867     0.2074 C.2     
  14 N14           -1.7754    -6.4098     1.3961 N.2     
  15 N15           -2.0145    -5.2508     1.9009 N.2     
  16 C16           -0.8275    -7.4130    -0.7033 C.3     
  17 O17           -1.2459     3.4145     0.0385 O.3     
  18 F18            1.1442     2.0669     0.0022 F       
  19 C19            0.2359    -8.3837    -0.1858 C.3     
  20 C20           -1.2223    -8.8338    -0.2954 C.3     
  21 C21           -2.5267     4.0482     0.0494 C.3     
  22 C22           -2.3468     5.5444     0.0569 C.ar    
  23 C23           -2.2698     6.2476    -1.1371 C.ar    
  24 C24           -2.2624     6.2311     1.2519 C.ar    
  25 N25           -2.1053     7.5410     1.2695 N.ar    
  26 C26           -2.0224     8.2451     0.1528 C.ar    
  27 C27           -2.1044     7.6209    -1.0850 C.ar    
  28 O28           -1.8609     9.5907     0.2174 O.3     
  29 C29           -1.7893    10.1738     1.5201 C.3     
  30 C30           -2.2188    -2.1849     2.2865 C.3     
  31 F31           -3.6080    -2.0710     2.1663 F       
  32 F32           -1.9084    -2.9048     3.4452 F       
  33 F33           -1.6513    -0.9085     2.3646 F       
  34 H34            0.9441    -0.5321    -0.0105 H       
  35 H35           -3.3423    -0.5788     0.0318 H       
  36 H36           -3.3646     1.8799     0.0456 H       
  37 H37           -0.2966    -2.3551    -1.9701 H       
  38 H38           -0.2733    -4.7725    -1.9838 H       
  39 H39           -0.8196    -7.1785    -1.7677 H       
  40 H40            0.9432    -8.7881    -0.9098 H       
  41 H41            0.6345    -8.2077     0.8133 H       
  42 H42           -1.7830    -8.9539     0.6315 H       
  43 H43           -1.4743    -9.5343    -1.0916 H       
  44 H44           -3.0852     3.7539    -0.8392 H       
  45 H45           -3.0751     3.7437     0.9407 H       
  46 H46           -2.3372     5.7350    -2.0853 H       
  47 H47           -2.3262     5.6892     2.1840 H       
  48 H48           -2.0363     8.1988    -1.9949 H       
  49 H49           -1.6601    11.2522     1.4288 H       
  50 H50           -2.7103     9.9629     2.0637 H       
  51 H51           -0.9430     9.7509     2.0614 H       
@<TRIPOS>BOND
   1    1    2 ar
   2    1   18 1
   3    1    6 ar
   4    2    3 ar
   5    2   34 1
   6    3    4 ar
   7    3    7 1
   8    4    5 ar
   9    4   35 1
  10    5    6 ar
  11    5   36 1
  12    6   17 1
  13    7    8 2
  14    7    9 1
  15    8   30 1
  16    8   12 1
  17    9   10 2
  18    9   37 1
  19   10   11 1
  20   10   38 1
  21   11   12 1
  22   11   13 1
  23   12   15 2
  24   13   14 2
  25   13   16 1
  26   14   15 1
  27   16   19 1
  28   16   20 1
  29   16   39 1
  30   17   21 1
  31   19   20 1
  32   19   40 1
  33   19   41 1
  34   20   42 1
  35   20   43 1
  36   21   22 1
  37   21   44 1
  38   21   45 1
  39   22   23 ar
  40   22   24 ar
  41   23   27 ar
  42   23   46 1
  43   24   25 ar
  44   24   47 1
  45   25   26 ar
  46   26   27 ar
  47   26   28 1
  48   27   48 1
  49   28   29 1
  50   29   49 1
  51   29   50 1
  52   29   51 1
  53   30   31 1
  54   30   32 1
  55   30   33 1

#	End of record

