#	Name: ASD01883483
#	Creating user name:	WinNT
#	Creation time:	15. 06. 2019 19:46

#	Modifying user name:	WinNT
#	Modification time:	15. 06. 2019 19:46

#	Program:	/corina/corina34_cracker 3.40 0067  02.08.2006

@<TRIPOS>MOLECULE
ASD01883483
  68   71    0    0    0
SMALL
NO_CHARGES


@<TRIPOS>ATOM
   1 F1            -0.8337     9.3608     0.5042 F       
   2 N2            -0.5842     3.3721     2.3314 N.am    
   3 C3            -0.4479     2.6633     1.1954 C.2     
   4 C4            -1.4373     1.7206     0.8288 C.2     
   5 C5            -2.5491     1.5475     1.6705 C.2     
   6 C6            -2.6351     2.3182     2.8447 C.2     
   7 C7            -1.6572     3.1999     3.1467 C.2     
   8 O8             0.5269     2.8336     0.4828 O.2     
   9 C9            -1.3085     0.9583    -0.3765 C.1     
  10 N10           -3.5357     0.6415     1.3521 N.pl3   
  11 C11           -4.9141     1.0895     1.1115 C.3     
  12 C12           -5.8572     0.2909     2.0168 C.3     
  13 C13           -5.6334    -1.2054     1.7863 C.3     
  14 C14           -4.1920    -1.5693     2.1496 C.3     
  15 C15           -3.2288    -0.7910     1.2404 C.3     
  16 C16            0.4480     4.3445     2.6992 C.3     
  17 C17            0.1043     5.6887     2.1109 C.ar    
  18 C18           -0.6667     6.5814     2.8318 C.ar    
  19 C19           -0.9821     7.8145     2.2935 C.ar    
  20 C20           -0.5256     8.1557     1.0316 C.ar    
  21 C21            0.2465     7.2608     0.3105 C.ar    
  22 C22            0.5651     6.0303     0.8530 C.ar    
  23 N23           -6.5594    -1.9742     2.6286 N.3     
  24 C24           -7.9556    -1.6419     2.3152 C.3     
  25 C25           -8.8448    -2.0910     3.4460 C.ar    
  26 C26           -8.6984    -1.5350     4.7029 C.ar    
  27 C27           -9.5142    -1.9471     5.7403 C.ar    
  28 C28          -10.4764    -2.9146     5.5203 C.ar    
  29 C29          -10.6234    -3.4701     4.2628 C.ar    
  30 C30           -9.8108    -3.0550     3.2247 C.ar    
  31 C31           -6.3188    -3.4172     2.4942 C.3     
  32 C32           -7.1082    -4.3534     3.4114 C.3     
  33 C33           -7.4516    -4.2720     1.9226 C.3     
  34 C34           -9.3540    -1.3416     7.1109 C.3     
  35 F35          -10.1764    -0.2153     7.2223 F       
  36 F36           -9.7168    -2.2817     8.0814 F       
  37 F37           -8.0200    -0.9656     7.3016 F       
  38 N38           -1.2062     0.3536    -1.3327 N.1     
  39 H39           -3.4808     2.2020     3.5063 H       
  40 H40           -1.7338     3.7856     4.0508 H       
  41 H41           -4.9987     2.1515     1.3421 H       
  42 H42           -5.1772     0.9180     0.0678 H       
  43 H43           -5.6523     0.5330     3.0596 H       
  44 H44           -6.8905     0.5448     1.7801 H       
  45 H45           -5.8145    -1.4425     0.7379 H       
  46 H46           -4.0027    -1.3096     3.1912 H       
  47 H47           -4.0399    -2.6392     2.0075 H       
  48 H48           -3.3559    -1.1180     0.2084 H       
  49 H49           -2.2016    -0.9693     1.5585 H       
  50 H50            0.5003     4.4257     3.7849 H       
  51 H51            1.4122     4.0145     2.3126 H       
  52 H52           -1.0230     6.3149     3.8159 H       
  53 H53           -1.5848     8.5117     2.8567 H       
  54 H54            0.6031     7.5258    -0.6738 H       
  55 H55            1.1673     5.3321     0.2907 H       
  56 H56           -8.0517    -0.5642     2.1834 H       
  57 H57           -8.2522    -2.1482     1.3966 H       
  58 H58           -7.9466    -0.7790     4.8747 H       
  59 H59          -11.1132    -3.2370     6.3309 H       
  60 H60          -11.3751    -4.2263     4.0911 H       
  61 H61           -9.9256    -3.4889     2.2424 H       
  62 H62           -5.2970    -3.7020     2.2433 H       
  63 H63           -6.6059    -5.2545     3.7635 H       
  64 H64           -7.8061    -3.8987     4.1144 H       
  65 H65           -8.3755    -3.7638     1.6463 H       
  66 H66           -7.1753    -5.1195     1.2953 H       
  67 Cl67           6.4122    14.3608    13.0814 Cl      
  68 H68            6.4122    15.7308    13.0814 H       
@<TRIPOS>BOND
   1    1   20 1
   2    2    3 am
   3    2   16 1
   4    2    7 1
   5    3    4 1
   6    3    8 2
   7    4    5 2
   8    4    9 1
   9    5    6 1
  10    5   10 1
  11    6    7 2
  12    6   39 1
  13    7   40 1
  14    9   38 3
  15   10   11 1
  16   10   15 1
  17   11   12 1
  18   11   41 1
  19   11   42 1
  20   12   13 1
  21   12   43 1
  22   12   44 1
  23   13   14 1
  24   13   23 1
  25   13   45 1
  26   14   15 1
  27   14   46 1
  28   14   47 1
  29   15   48 1
  30   15   49 1
  31   16   17 1
  32   16   50 1
  33   16   51 1
  34   17   18 ar
  35   17   22 ar
  36   18   19 ar
  37   18   52 1
  38   19   20 ar
  39   19   53 1
  40   20   21 ar
  41   21   22 ar
  42   21   54 1
  43   22   55 1
  44   23   24 1
  45   23   31 1
  46   24   25 1
  47   24   56 1
  48   24   57 1
  49   25   26 ar
  50   25   30 ar
  51   26   27 ar
  52   26   58 1
  53   27   28 ar
  54   27   34 1
  55   28   29 ar
  56   28   59 1
  57   29   30 ar
  58   29   60 1
  59   30   61 1
  60   31   32 1
  61   31   33 1
  62   31   62 1
  63   32   33 1
  64   32   63 1
  65   32   64 1
  66   33   65 1
  67   33   66 1
  68   34   35 1
  69   34   36 1
  70   34   37 1
  71   67   68 1

#	End of record

