#	Name: ASD01901590
#	Creating user name:	WinNT
#	Creation time:	15. 06. 2019 19:54

#	Modifying user name:	WinNT
#	Modification time:	15. 06. 2019 19:54

#	Program:	/corina/corina34_cracker 3.40 0067  02.08.2006

@<TRIPOS>MOLECULE
ASD01901590
  56   60    0    0    0
SMALL
NO_CHARGES


@<TRIPOS>ATOM
   1 C1            -0.0184     1.5028     0.0103 C.3     
   2 C2             0.0021    -0.0041     0.0020 C.2     
   3 C3             0.0068    -0.7191    -1.1247 C.2     
   4 S4             0.0319    -2.4258    -0.6884 S.3     
   5 C5             0.0336    -2.0122     0.9705 C.2     
   6 N6             0.0224    -0.7233     1.1085 N.2     
   7 N7             0.0502    -2.9250     2.0187 N.am    
   8 C8             0.0426    -2.4015     3.3780 C.3     
   9 C9            -0.4982    -3.4418     4.3603 C.3     
  10 N10            0.1698    -4.7286     4.0817 N.am    
  11 C11            0.8946    -5.3058     5.0485 C.2     
  12 O12            0.8672    -4.8341     6.1682 O.2     
  13 N13            1.6492    -6.3892     4.8168 N.am    
  14 C14            1.7257    -6.9317     3.5959 C.2     
  15 O15            2.4836    -7.8626     3.4255 O.2     
  16 C16            0.9247    -6.4475     2.4336 C.3     
  17 C17           -0.0031    -5.3029     2.7580 C.3     
  18 C18           -1.4284    -5.8558     2.6979 C.3     
  19 C19            0.0665    -4.2255     1.7141 C.2     
  20 O20            0.1448    -4.5494     0.5480 O.2     
  21 C21            2.3717    -6.9640     5.8726 C.ar    
  22 C22            3.6673    -6.5346     6.1416 C.ar    
  23 F23            4.2272    -5.5646     5.3860 F       
  24 C24            4.3812    -7.0979     7.1796 C.ar    
  25 C25            3.8009    -8.1011     7.9611 C.ar    
  26 C26            2.4988    -8.5301     7.6879 C.ar    
  27 C27            1.7889    -7.9583     6.6519 C.ar    
  28 F28            0.5284    -8.3683     6.3906 F       
  29 C29            4.5387    -8.6884     9.0388 C.1     
  30 C30            5.1437    -9.1698     9.9223 C.1     
  31 C31            5.8815    -9.7571    10.9999 C.ar    
  32 C32            7.1814    -9.3259    11.2779 C.ar    
  33 C33            7.8859    -9.8961    12.3174 C.ar    
  34 C34            7.3087   -10.8929    13.0843 C.ar    
  35 C35            6.0221   -11.3254    12.8147 C.ar    
  36 C36            5.3031   -10.7601    11.7824 C.ar    
  37 H37            1.0042     1.8801     0.0026 H       
  38 H38           -0.5455     1.8639    -0.8728 H       
  39 H39           -0.5286     1.8543     0.9071 H       
  40 H40           -0.0033    -0.3211    -2.1286 H       
  41 H41            1.0595    -2.1330     3.6643 H       
  42 H42           -0.5861    -1.5119     3.4160 H       
  43 H43           -0.2834    -3.1295     5.3822 H       
  44 H44           -1.5746    -3.5495     4.2264 H       
  45 H45            1.6105    -6.1271     1.6492 H       
  46 H46            0.3303    -7.2777     2.0521 H       
  47 H47           -2.1394    -5.0465     2.8641 H       
  48 H48           -1.6052    -6.2991     1.7179 H       
  49 H49           -1.5561    -6.6157     3.4688 H       
  50 H50            5.3871    -6.7643     7.3876 H       
  51 H51            2.0475    -9.3052     8.2895 H       
  52 H52            7.6333    -8.5482    10.6800 H       
  53 H53            8.8907    -9.5642    12.5332 H       
  54 H54            7.8652   -11.3359    13.8970 H       
  55 H55            5.5782   -12.1040    13.4172 H       
  56 H56            4.2972   -11.0950    11.5764 H       
@<TRIPOS>BOND
   1    1    2 1
   2    1   37 1
   3    1   38 1
   4    1   39 1
   5    2    6 1
   6    2    3 2
   7    3    4 1
   8    3   40 1
   9    4    5 1
  10    5    6 2
  11    5    7 1
  12    7   19 am
  13    7    8 1
  14    8    9 1
  15    8   41 1
  16    8   42 1
  17    9   10 1
  18    9   43 1
  19    9   44 1
  20   10   17 1
  21   10   11 am
  22   11   12 2
  23   11   13 am
  24   13   14 am
  25   13   21 1
  26   14   15 2
  27   14   16 1
  28   16   17 1
  29   16   45 1
  30   16   46 1
  31   17   18 1
  32   17   19 1
  33   18   47 1
  34   18   48 1
  35   18   49 1
  36   19   20 2
  37   21   27 ar
  38   21   22 ar
  39   22   23 1
  40   22   24 ar
  41   24   25 ar
  42   24   50 1
  43   25   26 ar
  44   25   29 1
  45   26   27 ar
  46   26   51 1
  47   27   28 1
  48   29   30 3
  49   30   31 1
  50   31   36 ar
  51   31   32 ar
  52   32   33 ar
  53   32   52 1
  54   33   34 ar
  55   33   53 1
  56   34   35 ar
  57   34   54 1
  58   35   36 ar
  59   35   55 1
  60   36   56 1

#	End of record

