#	Name: ASD03082158
#	Creating user name:	WinNT
#	Creation time:	15. 06. 2019 20:27

#	Modifying user name:	WinNT
#	Modification time:	15. 06. 2019 20:27

#	Program:	/corina/corina34_cracker 3.40 0067  02.08.2006

@<TRIPOS>MOLECULE
ASD03082158
  46   49    0    0    0
SMALL
NO_CHARGES


@<TRIPOS>ATOM
   1 C1             0.2355     1.4109     0.0714 C.2     
   2 N2             0.1305     0.1073     0.2337 N.2     
   3 C3            -1.1333    -0.2703     0.0366 C.2     
   4 N4            -1.8558     0.7873    -0.2549 N.2     
   5 N5            -0.9900     1.8927    -0.2332 N.pl3   
   6 C6             1.4756     2.2077     0.2054 C.ar    
   7 C7            -1.3434     3.2898    -0.4968 C.3     
   8 N8            -1.6114    -1.5790     0.1257 N.pl3   
   9 H9            -0.9924    -2.3132     0.2625 H       
  10 C10           -2.9840    -1.8315     0.0178 C.ar    
  11 C11           -3.9005    -0.8439     0.3533 C.ar    
  12 C12           -3.4298    -3.0683    -0.4304 C.ar    
  13 C13           -4.7839    -3.3164    -0.5370 C.ar    
  14 C14           -5.6990    -2.3307    -0.1971 C.ar    
  15 C15           -5.2547    -1.0938     0.2460 C.ar    
  16 C16            2.7329     1.6000     0.1234 C.ar    
  17 C17            1.4229     3.5906     0.4118 C.ar    
  18 C18            2.6033     4.2946     0.5312 C.ar    
  19 N19            3.7687     3.6813     0.4533 N.ar    
  20 C20            3.8632     2.3809     0.2540 C.ar    
  21 C21            5.2239     1.7381     0.1743 C.3     
  22 C22            5.7919     1.1252     1.4560 C.3     
  23 C23            5.2971     0.2176     0.3281 C.3     
  24 F24           -1.7133     3.9112     0.7008 F       
  25 O25           -7.0325    -2.5756    -0.3032 O.3     
  26 C26           -7.9180    -1.5157     0.0637 C.3     
  27 C27           -5.2679    -4.6581    -1.0233 C.3     
  28 F28           -4.1687    -5.4775    -1.3019 F       
  29 F29           -6.0564    -5.2559    -0.0343 F       
  30 F30           -6.0280    -4.4866    -2.1853 F       
  31 H31           -0.4847     3.8073    -0.9245 H       
  32 H32           -2.1768     3.3276    -1.1983 H       
  33 H33           -3.5547     0.1193     0.6983 H       
  34 H34           -2.7176    -3.8355    -0.6958 H       
  35 H35           -5.9678    -0.3272     0.5108 H       
  36 H36            2.8177     0.5357    -0.0392 H       
  37 H37            0.4723     4.0993     0.4762 H       
  38 H38            2.5729     5.3624     0.6903 H       
  39 H39            5.9269     2.2092    -0.5127 H       
  40 H40            6.8685     1.1927     1.6120 H       
  41 H41            5.1813     1.1869     2.3569 H       
  42 H42            4.3610    -0.3178     0.4869 H       
  43 H43            6.0482    -0.3120    -0.2580 H       
  44 H44           -7.7516    -1.2480     1.1071 H       
  45 H45           -7.7283    -0.6484    -0.5686 H       
  46 H46           -8.9496    -1.8423    -0.0675 H       
@<TRIPOS>BOND
   1    1    2 2
   2    1    6 1
   3    1    5 1
   4    2    3 1
   5    3    4 2
   6    3    8 1
   7    4    5 1
   8    5    7 1
   9    6   16 ar
  10    6   17 ar
  11    7   24 1
  12    7   31 1
  13    7   32 1
  14    8    9 1
  15    8   10 1
  16   10   11 ar
  17   10   12 ar
  18   11   15 ar
  19   11   33 1
  20   12   13 ar
  21   12   34 1
  22   13   14 ar
  23   13   27 1
  24   14   15 ar
  25   14   25 1
  26   15   35 1
  27   16   20 ar
  28   16   36 1
  29   17   18 ar
  30   17   37 1
  31   18   19 ar
  32   18   38 1
  33   19   20 ar
  34   20   21 1
  35   21   22 1
  36   21   23 1
  37   21   39 1
  38   22   23 1
  39   22   40 1
  40   22   41 1
  41   23   42 1
  42   23   43 1
  43   25   26 1
  44   26   44 1
  45   26   45 1
  46   26   46 1
  47   27   28 1
  48   27   29 1
  49   27   30 1

#	End of record

