#	Name: ASD01910485
#	Creating user name:	WinNT
#	Creation time:	15. 06. 2019 19:55

#	Modifying user name:	WinNT
#	Modification time:	15. 06. 2019 19:55

#	Program:	/corina/corina34_cracker 3.40 0067  02.08.2006

@<TRIPOS>MOLECULE
ASD01910485
  43   46    0    0    0
SMALL
NO_CHARGES


@<TRIPOS>ATOM
   1 C1            -0.8914     1.6560    -0.1980 C.ar    
   2 C2            -0.7205     0.1816    -0.1902 C.2     
   3 N3            -1.7071    -0.7404    -0.1196 N.2     
   4 C4            -1.1043    -1.9030    -0.1417 C.2     
   5 O5             0.2084    -1.6642    -0.2235 O.3     
   6 N6             0.4119    -0.4689    -0.2561 N.2     
   7 C7            -1.7661    -3.2556    -0.0846 C.3     
   8 C8            -1.4196    -4.0476    -1.3475 C.3     
   9 C9            -2.1179    -5.4088    -1.3057 C.3     
  10 C10           -1.6204    -6.1963    -0.0895 C.3     
  11 N11           -1.8179    -5.3795     1.1158 N.am    
  12 C12           -1.2647    -4.0187     1.1455 C.3     
  13 C13           -2.4937    -5.8693     2.1740 C.2     
  14 C14           -2.5731    -5.0883     3.4255 C.ar    
  15 O15           -3.0380    -6.9537     2.0987 O.2     
  16 C16            0.2231     2.4885    -0.2752 C.ar    
  17 C17            0.0584     3.8589    -0.2825 C.ar    
  18 C18           -1.2101     4.4059    -0.2134 C.ar    
  19 C19           -2.3200     3.5840    -0.1365 C.ar    
  20 C20           -2.1671     2.2123    -0.1338 C.ar    
  21 C21           -3.7668    -5.0214     4.1445 C.ar    
  22 N22           -3.8390    -4.3256     5.2603 N.ar    
  23 C23           -2.7977    -3.6695     5.7414 C.ar    
  24 C24           -1.5756    -3.6874     5.0846 C.ar    
  25 C25           -1.4489    -4.4076     3.9124 C.ar    
  26 F26           -2.9252    -2.9701     6.8903 F       
  27 H27           -2.8468    -3.1294    -0.0194 H       
  28 H28           -1.7535    -3.4950    -2.2257 H       
  29 H29           -0.3408    -4.1943    -1.3995 H       
  30 H30           -3.1953    -5.2628    -1.2287 H       
  31 H31           -1.8895    -5.9629    -2.2161 H       
  32 H32           -2.1854    -7.1240     0.0012 H       
  33 H33           -0.5606    -6.4215    -0.2086 H       
  34 H34           -0.1759    -4.0664     1.1271 H       
  35 H35           -1.5950    -3.5097     2.0510 H       
  36 H36            1.2140     2.0624    -0.3289 H       
  37 H37            0.9217     4.5052    -0.3420 H       
  38 H38           -1.3344     5.4787    -0.2190 H       
  39 H39           -3.3082     4.0164    -0.0824 H       
  40 H40           -3.0344     1.5714    -0.0738 H       
  41 H41           -4.6396    -5.5446     3.7827 H       
  42 H42           -0.7315    -3.1473     5.4873 H       
  43 H43           -0.5094    -4.4392     3.3809 H       
@<TRIPOS>BOND
   1    1    2 1
   2    1   16 ar
   3    1   20 ar
   4    2    3 1
   5    2    6 2
   6    3    4 2
   7    4    5 1
   8    4    7 1
   9    5    6 1
  10    7    8 1
  11    7   12 1
  12    7   27 1
  13    8    9 1
  14    8   28 1
  15    8   29 1
  16    9   10 1
  17    9   30 1
  18    9   31 1
  19   10   11 1
  20   10   32 1
  21   10   33 1
  22   11   12 1
  23   11   13 am
  24   12   34 1
  25   12   35 1
  26   13   14 1
  27   13   15 2
  28   14   21 ar
  29   14   25 ar
  30   16   17 ar
  31   16   36 1
  32   17   18 ar
  33   17   37 1
  34   18   19 ar
  35   18   38 1
  36   19   20 ar
  37   19   39 1
  38   20   40 1
  39   21   22 ar
  40   21   41 1
  41   22   23 ar
  42   23   24 ar
  43   23   26 1
  44   24   25 ar
  45   24   42 1
  46   25   43 1

#	End of record

