#	Name: ASD01841045
#	Creating user name:	WinNT
#	Creation time:	15. 06. 2019 19:38

#	Modifying user name:	WinNT
#	Modification time:	15. 06. 2019 19:38

#	Program:	/corina/corina34_cracker 3.40 0067  02.08.2006

@<TRIPOS>MOLECULE
ASD01841045
  38   40    0    0    0
SMALL
NO_CHARGES


@<TRIPOS>ATOM
   1 C1            -0.0180     1.4737     0.0101 C.2     
   2 C2             0.0021    -0.0041     0.0020 C.ar    
   3 O3             1.0263     2.0957     0.0035 O.2     
   4 N4            -1.1942     2.1316     0.0193 N.am    
   5 S5            -2.6697     4.5007     0.0392 S.3     
   6 C6            -1.2130     3.5166     0.0269 C.2     
   7 N7            -0.1661     4.2660     0.0268 N.2     
   8 C8            -0.3466     5.6021     0.0355 C.ar    
   9 C9            -1.6946     5.9683     0.0436 C.ar    
  10 C10           -2.0608     7.3133     0.0525 C.ar    
  11 C11           -1.0962     8.2959     0.0530 C.ar    
  12 C12            0.2467     7.9501     0.0450 C.ar    
  13 C13            0.6285     6.6274     0.0373 C.ar    
  14 C14           -3.5190     7.6936     0.0612 C.3     
  15 O15            1.9490     6.3047     0.0301 O.3     
  16 C16            2.8814     7.3876     0.0324 C.3     
  17 C17            1.2186    -0.6887    -0.0133 C.ar    
  18 C18            1.2302    -2.0681    -0.0208 C.ar    
  19 C19            0.0396    -2.7731    -0.0138 C.ar    
  20 C20           -1.1696    -2.1008     0.0009 C.ar    
  21 C21           -1.1954    -0.7215     0.0154 C.ar    
  22 C22            0.0601    -4.2799    -0.0226 C.3     
  23 H23           -2.0276     1.6353     0.0206 H       
  24 H24           -1.3857     9.3364     0.0592 H       
  25 H25            0.9993     8.7247     0.0451 H       
  26 H26           -3.8659     7.7797     1.0910 H       
  27 H27           -3.6483     8.6492    -0.4469 H       
  28 H28           -4.0975     6.9269    -0.4541 H       
  29 H29            2.7255     8.0032    -0.8535 H       
  30 H30            2.7328     7.9931     0.9265 H       
  31 H31            3.8972     6.9924     0.0260 H       
  32 H32            2.1486    -0.1396    -0.0195 H       
  33 H33            2.1706    -2.5990    -0.0327 H       
  34 H34           -2.0953    -2.6570     0.0057 H       
  35 H35           -2.1399    -0.1980     0.0269 H       
  36 H36            0.0746    -4.6491     1.0029 H       
  37 H37           -0.8297    -4.6524    -0.5303 H       
  38 H38            0.9500    -4.6281    -0.5468 H       
@<TRIPOS>BOND
   1    1    2 1
   2    1    3 2
   3    1    4 am
   4    2   17 ar
   5    2   21 ar
   6    4    6 1
   7    4   23 1
   8    5    6 1
   9    5    9 1
  10    6    7 2
  11    7    8 1
  12    8    9 ar
  13    8   13 ar
  14    9   10 ar
  15   10   11 ar
  16   10   14 1
  17   11   12 ar
  18   11   24 1
  19   12   13 ar
  20   12   25 1
  21   13   15 1
  22   14   26 1
  23   14   27 1
  24   14   28 1
  25   15   16 1
  26   16   29 1
  27   16   30 1
  28   16   31 1
  29   17   18 ar
  30   17   32 1
  31   18   19 ar
  32   18   33 1
  33   19   20 ar
  34   19   22 1
  35   20   21 ar
  36   20   34 1
  37   21   35 1
  38   22   36 1
  39   22   37 1
  40   22   38 1

#	End of record

