#	Name: ASD00170752
#	Creating user name:	WinNT
#	Creation time:	15. 06. 2019 18:32

#	Modifying user name:	WinNT
#	Modification time:	15. 06. 2019 18:32

#	Program:	/corina/corina34_cracker 3.40 0067  02.08.2006

@<TRIPOS>MOLECULE
ASD00170752
  39   41    0    0    0
SMALL
NO_CHARGES


@<TRIPOS>ATOM
   1 C1            -0.0154     1.2114    -0.0012 C.2     
   2 O2             0.6390     1.0218    -1.0106 O.2     
   3 C3             0.4829     0.7280     1.3048 C.ar    
   4 C4             1.6419    -0.0475     1.3690 C.ar    
   5 C5             2.1021    -0.4952     2.5905 C.ar    
   6 C6             1.4152    -0.1763     3.7518 C.ar    
   7 C7             0.2649     0.5923     3.6931 C.ar    
   8 C8            -0.2007     1.0504     2.4782 C.ar    
   9 Cl9            1.9991    -0.7431     5.2852 Cl      
  10 Cl10           3.5431    -1.4598     2.6732 Cl      
  11 C11           -1.4053     3.2884    -0.0050 C.2     
  12 C12           -1.2899     1.9219    -0.0794 C.2     
  13 C13           -2.5737     1.2585    -0.2453 C.2     
  14 C14           -3.5983     2.1162    -0.2909 C.2     
  15 S15           -3.0345     3.7698    -0.1327 S.3     
  16 C16           -2.7295    -0.2116    -0.3525 C.ar    
  17 C17           -3.4127    -0.9171     0.6375 C.ar    
  18 C18           -3.5544    -2.2855     0.5324 C.ar    
  19 C19           -3.0198    -2.9578    -0.5523 C.ar    
  20 C20           -2.3407    -2.2635    -1.5371 C.ar    
  21 C21           -2.1984    -0.8937    -1.4462 C.ar    
  22 C22           -4.2925    -3.0495     1.6013 C.3     
  23 F23           -5.6505    -3.1181     1.2720 F       
  24 F24           -3.7694    -4.3436     1.6951 F       
  25 F25           -4.1429    -2.3958     2.8292 F       
  26 C26           -5.0419     1.7165    -0.4558 C.3     
  27 N27           -0.3441     4.1551     0.1573 N.pl3   
  28 H28            2.1770    -0.2969     0.4647 H       
  29 H29           -0.2663     0.8374     4.6009 H       
  30 H30           -1.0956     1.6535     2.4346 H       
  31 H31           -3.8298    -0.3935     1.4850 H       
  32 H32           -3.1330    -4.0291    -0.6302 H       
  33 H33           -1.9253    -2.7936    -2.3814 H       
  34 H34           -1.6724    -0.3519    -2.2183 H       
  35 H35           -5.4889     1.5562     0.5254 H       
  36 H36           -5.5811     2.5085    -0.9756 H       
  37 H37           -5.1000     0.7958    -1.0363 H       
  38 H38            0.5492     3.8063     0.3030 H       
  39 H39           -0.4914     5.1134     0.1258 H       
@<TRIPOS>BOND
   1    1    2 2
   2    1    3 1
   3    1   12 1
   4    3    4 ar
   5    3    8 ar
   6    4    5 ar
   7    4   28 1
   8    5    6 ar
   9    5   10 1
  10    6    7 ar
  11    6    9 1
  12    7    8 ar
  13    7   29 1
  14    8   30 1
  15   11   12 2
  16   11   15 1
  17   11   27 1
  18   12   13 1
  19   13   14 2
  20   13   16 1
  21   14   15 1
  22   14   26 1
  23   16   17 ar
  24   16   21 ar
  25   17   18 ar
  26   17   31 1
  27   18   19 ar
  28   18   22 1
  29   19   20 ar
  30   19   32 1
  31   20   21 ar
  32   20   33 1
  33   21   34 1
  34   22   23 1
  35   22   24 1
  36   22   25 1
  37   26   35 1
  38   26   36 1
  39   26   37 1
  40   27   38 1
  41   27   39 1

#	End of record

