#	Name: ASD01900187
#	Creating user name:	WinNT
#	Creation time:	15. 06. 2019 19:51

#	Modifying user name:	WinNT
#	Modification time:	15. 06. 2019 19:51

#	Program:	/corina/corina34_cracker 3.40 0067  02.08.2006

@<TRIPOS>MOLECULE
ASD01900187
  36   39    0    0    0
SMALL
NO_CHARGES


@<TRIPOS>ATOM
   1 N1            -0.0167     1.3829     0.0096 N.pl3   
   2 S2            -1.4217    -1.0418     0.0100 S.3     
   3 C3             0.0021    -0.0041     0.0020 C.2     
   4 N4             1.0719    -0.7401    -0.0129 N.2     
   5 C5             0.9028    -2.0504    -0.0348 C.2     
   6 C6             1.9503    -3.1127    -0.1992 C.2     
   7 C7             1.7130    -4.1938    -1.0725 C.2     
   8 C8             0.5057    -4.2789    -1.9559 C.3     
   9 C9            -0.7677    -4.6688    -1.1856 C.3     
  10 C10           -0.7894    -3.8983     0.1439 C.3     
  11 C11           -0.3877    -2.4617     0.0240 C.2     
  12 N12            2.7286    -5.0020    -0.9764 N.2     
  13 N13            3.6598    -4.4418    -0.0871 N.pl3   
  14 C14            3.1570    -3.2680     0.3699 C.2     
  15 C15            1.1787     2.0949     0.0021 C.ar    
  16 C16            1.1526     3.4859     0.0098 C.ar    
  17 C17            2.3483     4.1811     0.0021 C.ar    
  18 C18            3.5346     3.4591    -0.0131 C.ar    
  19 C19            3.4865     2.0795    -0.0201 C.ar    
  20 N20            2.3309     1.4426    -0.0070 N.ar    
  21 C21           -0.1605     4.2251     0.0258 C.3     
  22 H22           -0.8633     1.8564     0.0162 H       
  23 H23            0.3475    -3.3101    -2.4298 H       
  24 H24            0.6891    -5.0221    -2.7318 H       
  25 H25           -1.6466    -4.4071    -1.7748 H       
  26 H26           -0.7621    -5.7406    -0.9876 H       
  27 H27           -1.7980    -3.9434     0.5547 H       
  28 H28           -0.1119    -4.3909     0.8415 H       
  29 H29            4.5152    -4.8278     0.1581 H       
  30 H30            3.6355    -2.5880     1.0592 H       
  31 H31            2.3592     5.2610     0.0074 H       
  32 H32            4.4851     3.9718    -0.0198 H       
  33 H33            4.4066     1.5141    -0.0319 H       
  34 H34           -0.4677     4.3978     1.0573 H       
  35 H35           -0.0452     5.1817    -0.4840 H       
  36 H36           -0.9184     3.6306    -0.4843 H       
@<TRIPOS>BOND
   1    1    3 1
   2    1   15 1
   3    1   22 1
   4    2    3 1
   5    2   11 1
   6    3    4 2
   7    4    5 1
   8    5    6 1
   9    5   11 2
  10    6    7 1
  11    6   14 2
  12    7    8 1
  13    7   12 2
  14    8    9 1
  15    8   23 1
  16    8   24 1
  17    9   10 1
  18    9   25 1
  19    9   26 1
  20   10   11 1
  21   10   27 1
  22   10   28 1
  23   12   13 1
  24   13   14 1
  25   13   29 1
  26   14   30 1
  27   15   16 ar
  28   15   20 ar
  29   16   17 ar
  30   16   21 1
  31   17   18 ar
  32   17   31 1
  33   18   19 ar
  34   18   32 1
  35   19   20 ar
  36   19   33 1
  37   21   34 1
  38   21   35 1
  39   21   36 1

#	End of record

