#	Name: ASD01420076
#	Creating user name:	WinNT
#	Creation time:	15. 06. 2019 19:20

#	Modifying user name:	WinNT
#	Modification time:	15. 06. 2019 19:20

#	Program:	/corina/corina34_cracker 3.40 0067  02.08.2006

@<TRIPOS>MOLECULE
ASD01420076
  59   61    0    0    0
SMALL
NO_CHARGES


@<TRIPOS>ATOM
   1 C1            -0.0144     1.2120     0.0087 C.2     
   2 O2             0.1295     0.0133     0.1556 O.2     
   3 C3             1.0485     3.4380    -0.4778 C.3     
   4 N4             1.0607     2.0007    -0.1879 N.am    
   5 C5             2.4668     1.5860    -0.1520 C.3     
   6 C6             3.3110     2.8046    -0.4268 C.ar    
   7 C7             4.6888     2.9646    -0.5065 C.ar    
   8 C8             5.2269     4.2133    -0.7775 C.ar    
   9 C9             4.3910     5.2968    -0.9679 C.ar    
  10 C10            3.0211     5.1356    -0.8883 C.ar    
  11 C11            2.4804     3.8896    -0.6178 C.ar    
  12 O12            5.5089     1.8974    -0.3183 O.3     
  13 C13            6.9148     2.1347    -0.4146 C.3     
  14 C14            7.6705     0.8261    -0.1753 C.3     
  15 O15            7.3700    -0.0962    -1.2247 O.3     
  16 C16            8.0288    -1.3577    -1.0961 C.3     
  17 C17            7.6358    -2.2601    -2.2675 C.3     
  18 O18            8.1276    -1.6994    -3.4865 O.3     
  19 C19            7.8132    -2.4690    -4.6487 C.3     
  20 C20           -1.3642     1.8010     0.0396 C.ar    
  21 C21           -2.2645     1.4466     1.0560 C.ar    
  22 C22           -3.5306     2.0051     1.0778 C.ar    
  23 C23           -3.9066     2.9115     0.0972 C.ar    
  24 C24           -3.0150     3.2639    -0.9112 C.ar    
  25 C25           -1.7516     2.7199    -0.9404 C.ar    
  26 C26           -3.4328     4.2494    -1.9720 C.3     
  27 C27           -2.5003     5.4619    -1.9374 C.3     
  28 C28           -3.3524     3.5833    -3.3471 C.3     
  29 O29           -5.1493     3.4565     0.1214 O.3     
  30 O30           -1.8952     0.5594     2.0135 O.3     
  31 H31            0.5103     3.6228    -1.4075 H       
  32 H32            0.5698     3.9760     0.3404 H       
  33 H33            2.7082     1.1835     0.8318 H       
  34 H34            2.6488     0.8304    -0.9162 H       
  35 H35            6.2978     4.3389    -0.8392 H       
  36 H36            4.8086     6.2703    -1.1787 H       
  37 H37            2.3697     5.9841    -1.0372 H       
  38 H38            7.1519     2.5148    -1.4083 H       
  39 H39            7.2117     2.8681     0.3352 H       
  40 H40            8.7424     1.0230    -0.1605 H       
  41 H41            7.3660     0.4003     0.7808 H       
  42 H42            9.1082    -1.2061    -1.1003 H       
  43 H43            7.7317    -1.8288    -0.1591 H       
  44 H44            8.0668    -3.2508    -2.1234 H       
  45 H45            6.5498    -2.3398    -2.3164 H       
  46 H46            6.7309    -2.5531    -4.7470 H       
  47 H47            8.2211    -1.9769    -5.5316 H       
  48 H48            8.2478    -3.4641    -4.5540 H       
  49 H49           -4.2264     1.7349     1.8584 H       
  50 H50           -1.0610     2.9994    -1.7223 H       
  51 H51           -4.4566     4.5730    -1.7844 H       
  52 H52           -1.4765     5.1383    -2.1250 H       
  53 H53           -2.8024     6.1747    -2.7046 H       
  54 H54           -2.5576     5.9365    -0.9578 H       
  55 H55           -4.0167     2.7195    -3.3718 H       
  56 H56           -3.6545     4.2961    -4.1143 H       
  57 H57           -2.3285     3.2598    -3.5347 H       
  58 H58           -5.2085     4.2786     0.6270 H       
  59 H59           -1.4865     0.9660     2.7899 H       
@<TRIPOS>BOND
   1    1    2 2
   2    1    4 am
   3    1   20 1
   4    3    4 1
   5    3   11 1
   6    3   31 1
   7    3   32 1
   8    4    5 1
   9    5    6 1
  10    5   33 1
  11    5   34 1
  12    6    7 ar
  13    6   11 ar
  14    7    8 ar
  15    7   12 1
  16    8    9 ar
  17    8   35 1
  18    9   10 ar
  19    9   36 1
  20   10   11 ar
  21   10   37 1
  22   12   13 1
  23   13   14 1
  24   13   38 1
  25   13   39 1
  26   14   15 1
  27   14   40 1
  28   14   41 1
  29   15   16 1
  30   16   17 1
  31   16   42 1
  32   16   43 1
  33   17   18 1
  34   17   44 1
  35   17   45 1
  36   18   19 1
  37   19   46 1
  38   19   47 1
  39   19   48 1
  40   20   21 ar
  41   20   25 ar
  42   21   22 ar
  43   21   30 1
  44   22   23 ar
  45   22   49 1
  46   23   24 ar
  47   23   29 1
  48   24   25 ar
  49   24   26 1
  50   25   50 1
  51   26   27 1
  52   26   28 1
  53   26   51 1
  54   27   52 1
  55   27   53 1
  56   27   54 1
  57   28   55 1
  58   28   56 1
  59   28   57 1
  60   29   58 1
  61   30   59 1

#	End of record

