#	Name: ASD05060045
#	Creating user name:	WinNT
#	Creation time:	15. 06. 2019 20:56

#	Modifying user name:	WinNT
#	Modification time:	15. 06. 2019 20:56

#	Program:	/corina/corina34_cracker 3.40 0067  02.08.2006

@<TRIPOS>MOLECULE
ASD05060045
  40   42    0    0    0
SMALL
NO_CHARGES


@<TRIPOS>ATOM
   1 C1            -0.0444     1.2041    -0.0566 C.2     
   2 N2             0.0451    -0.0963     0.0042 N.2     
   3 C3             1.3393    -0.4553     0.0405 C.2     
   4 C4             2.0908     0.7116    -0.0014 C.2     
   5 N5             1.1892     1.7438    -0.0624 N.pl3   
   6 C6             1.8650    -1.8349     0.1124 C.2     
   7 O7             3.0649    -2.0273     0.1400 O.2     
   8 N8             1.0140    -2.8793     0.1475 N.am    
   9 C9             1.5069    -4.1813     0.0999 C.ar    
  10 C10            0.6351    -5.2541     0.2513 C.ar    
  11 C11            1.1379    -6.5420     0.2015 C.ar    
  12 C12            2.5011    -6.7136     0.0011 C.ar    
  13 C13            3.3086    -5.6027    -0.1415 C.ar    
  14 N14            2.8001    -4.3862    -0.0946 N.ar    
  15 C15            3.5596     0.8195     0.0162 C.2     
  16 O16            4.1647     1.0492    -1.0133 O.2     
  17 N17            4.2329     0.6636     1.1732 N.am    
  18 C18            3.5276     0.2813     2.4042 C.3     
  19 C19            3.8641     1.2967     3.5008 C.3     
  20 C20            5.3839     1.3939     3.6515 C.3     
  21 C21            5.9985     1.8809     2.3373 C.3     
  22 C22            5.6871     0.8666     1.2263 C.3     
  23 O23            5.7007     2.3164     4.6959 O.3     
  24 H24           -0.9678     1.7626    -0.1005 H       
  25 H25            1.4015     2.6894    -0.1025 H       
  26 H26            0.0582    -2.7245     0.2058 H       
  27 H27           -0.4202    -5.0842     0.4061 H       
  28 H28            0.4850    -7.3946     0.3163 H       
  29 H29            2.9255    -7.7058    -0.0425 H       
  30 H30            4.3695    -5.7314    -0.2972 H       
  31 H31            2.4526     0.2807     2.2241 H       
  32 H32            3.8486    -0.7127     2.7156 H       
  33 H33            3.4623     2.2728     3.2285 H       
  34 H34            3.4249     0.9723     4.4441 H       
  35 H35            5.7877     0.4123     3.8995 H       
  36 H36            5.5767     2.8514     2.0760 H       
  37 H37            7.0786     1.9722     2.4526 H       
  38 H38            6.1806    -0.0806     1.4436 H       
  39 H39            6.0374     1.2523     0.2689 H       
  40 H40            6.6492     2.4283     4.8475 H       
@<TRIPOS>BOND
   1    1    2 2
   2    1    5 1
   3    1   24 1
   4    2    3 1
   5    3    4 2
   6    3    6 1
   7    4    5 1
   8    4   15 1
   9    5   25 1
  10    6    7 2
  11    6    8 am
  12    8    9 1
  13    8   26 1
  14    9   10 ar
  15    9   14 ar
  16   10   11 ar
  17   10   27 1
  18   11   12 ar
  19   11   28 1
  20   12   13 ar
  21   12   29 1
  22   13   14 ar
  23   13   30 1
  24   15   16 2
  25   15   17 am
  26   17   18 1
  27   17   22 1
  28   18   19 1
  29   18   31 1
  30   18   32 1
  31   19   20 1
  32   19   33 1
  33   19   34 1
  34   20   21 1
  35   20   23 1
  36   20   35 1
  37   21   22 1
  38   21   36 1
  39   21   37 1
  40   22   38 1
  41   22   39 1
  42   23   40 1

#	End of record

