#	Name: ASD01410166
#	Creating user name:	WinNT
#	Creation time:	15. 06. 2019 19:16

#	Modifying user name:	WinNT
#	Modification time:	15. 06. 2019 19:16

#	Program:	/corina/corina34_cracker 3.40 0067  02.08.2006

@<TRIPOS>MOLECULE
ASD01410166
  48   51    0    0    0
SMALL
NO_CHARGES


@<TRIPOS>ATOM
   1 C1             0.0210     1.5117    -0.1820 C.3     
   2 C2             0.0567    -0.0178    -0.2029 C.3     
   3 C3             0.9213    -0.4918    -1.3729 C.3     
   4 C4             2.3429     0.0493    -1.2085 C.3     
   5 C5             2.3072     1.5788    -1.1876 C.3     
   6 C6             1.4427     2.0528    -0.0176 C.3     
   7 C7             1.8623     4.3004     3.5099 C.ar    
   8 C8             2.4057     3.8784     2.2956 C.ar    
   9 C9             3.4938     3.0044     2.2912 C.ar    
  10 C10            4.0252     2.5633     3.4855 C.ar    
  11 C11            3.4818     2.9855     4.6858 C.ar    
  12 C12            2.4031     3.8518     4.6972 C.ar    
  13 C13            0.9270     4.3948    -1.0323 C.ar    
  14 C14            1.0843     5.7232    -0.5846 C.ar    
  15 C15            0.6910     6.7671    -1.4085 C.ar    
  16 C16            0.1499     6.4538    -2.6608 C.ar    
  17 C17            0.0248     5.1093    -3.0366 C.ar    
  18 N18            0.4097     4.1438    -2.2375 N.ar    
  19 C19            1.4075     3.5592     0.0030 C.2     
  20 C20            1.8308     4.3548     1.0194 C.2     
  21 N21            1.6406     5.6707     0.6763 N.pl3   
  22 O22            1.9619     6.7888     1.4837 O.3     
  23 C23            3.2764     7.3049     1.2653 C.3     
  24 C24           -0.2841     7.5262    -3.5744 C.2     
  25 O25           -0.1730     8.6896    -3.2417 O.2     
  26 O26           -0.8041     7.2163    -4.7784 O.3     
  27 H27           -0.4013     1.8781    -1.1177 H       
  28 H28           -0.5949     1.8493     0.6515 H       
  29 H29            0.4790    -0.3842     0.7328 H       
  30 H30           -0.9561    -0.4033    -0.3200 H       
  31 H31            0.9467    -1.5814    -1.3878 H       
  32 H32            0.4989    -0.1254    -2.3085 H       
  33 H33            2.7652    -0.3171    -0.2728 H       
  34 H34            2.9588    -0.2884    -2.0420 H       
  35 H35            3.3200     1.9643    -1.0705 H       
  36 H36            1.8849     1.9452    -2.1233 H       
  37 H37            1.8650     1.6864     0.9180 H       
  38 H38            1.0231     4.9802     3.5202 H       
  39 H39            3.9187     2.6738     1.3549 H       
  40 H40            4.8670     1.8866     3.4835 H       
  41 H41            3.9013     2.6369     5.6180 H       
  42 H42            1.9836     4.1776     5.6375 H       
  43 H43            0.7991     7.7941    -1.0923 H       
  44 H44           -0.3924     4.8646    -4.0023 H       
  45 H45            4.0136     6.5596     1.5640 H       
  46 H46            3.4039     7.5388     0.2083 H       
  47 H47            3.4143     8.2099     1.8569 H       
  48 H48           -1.0745     7.9535    -5.3427 H       
@<TRIPOS>BOND
   1    1    2 1
   2    1    6 1
   3    1   27 1
   4    1   28 1
   5    2    3 1
   6    2   29 1
   7    2   30 1
   8    3    4 1
   9    3   31 1
  10    3   32 1
  11    4    5 1
  12    4   33 1
  13    4   34 1
  14    5    6 1
  15    5   35 1
  16    5   36 1
  17    6   19 1
  18    6   37 1
  19    7    8 ar
  20    7   12 ar
  21    7   38 1
  22    8    9 ar
  23    8   20 1
  24    9   10 ar
  25    9   39 1
  26   10   11 ar
  27   10   40 1
  28   11   12 ar
  29   11   41 1
  30   12   42 1
  31   13   19 1
  32   13   14 ar
  33   13   18 ar
  34   14   15 ar
  35   14   21 1
  36   15   16 ar
  37   15   43 1
  38   16   17 ar
  39   16   24 1
  40   17   18 ar
  41   17   44 1
  42   19   20 2
  43   20   21 1
  44   21   22 1
  45   22   23 1
  46   23   45 1
  47   23   46 1
  48   23   47 1
  49   24   25 2
  50   24   26 1
  51   26   48 1

#	End of record

