#	Name: ASD01900454
#	Creating user name:	WinNT
#	Creation time:	15. 06. 2019 19:51

#	Modifying user name:	WinNT
#	Modification time:	15. 06. 2019 19:51

#	Program:	/corina/corina34_cracker 3.40 0067  02.08.2006

@<TRIPOS>MOLECULE
ASD01900454
  40   43    0    0    0
SMALL
NO_CHARGES


@<TRIPOS>ATOM
   1 C1             0.3995     3.9874     0.6044 C.ar    
   2 C2             0.8404     5.0259     1.4468 C.ar    
   3 C3             2.2072     5.2845     1.5441 C.ar    
   4 C4             3.0740     4.5046     0.8042 C.ar    
   5 C5             2.5691     3.4965    -0.0067 C.ar    
   6 N6             1.2784     3.2654    -0.0866 N.ar    
   7 N7            -1.4101     4.9107     1.5489 N.2     
   8 N8            -0.2749     5.5806     2.0168 N.pl3   
   9 C9            -1.0612     3.9702     0.7117 C.2     
  10 N10           -1.9266     3.0974     0.0450 N.pl3   
  11 C11           -3.3113     3.2653     0.1552 C.ar    
  12 C12           -3.8428     4.5303     0.3723 C.ar    
  13 C13           -5.2103     4.6950     0.4804 C.ar    
  14 C14           -6.0525     3.5964     0.3727 C.ar    
  15 C15           -5.5220     2.3339     0.1564 C.ar    
  16 C16           -4.1553     2.1684     0.0419 C.ar    
  17 Cl17          -5.8754     6.2754     0.7517 Cl      
  18 O18           -7.3987     3.7589     0.4797 O.3     
  19 C19           -8.2054     2.5857     0.3588 C.3     
  20 C20           -9.6585     2.9581     0.5030 C.ar    
  21 C21          -10.3982     3.3011    -0.6133 C.ar    
  22 C22          -11.7311     3.6428    -0.4810 C.ar    
  23 C23          -12.3244     3.6411     0.7675 C.ar    
  24 C24          -11.5850     3.2972     1.8837 C.ar    
  25 C25          -10.2532     2.9513     1.7509 C.ar    
  26 H26            2.5780     6.0740     2.1810 H       
  27 H27            4.1388     4.6779     0.8556 H       
  28 H28            3.2517     2.8899    -0.5834 H       
  29 H29           -0.2770     6.3198     2.6449 H       
  30 H30           -1.5670     2.3755    -0.4940 H       
  31 H31           -3.1874     5.3845     0.4568 H       
  32 H32           -6.1779     1.4798     0.0734 H       
  33 H33           -3.7430     1.1854    -0.1313 H       
  34 H34           -8.0420     2.1315    -0.6185 H       
  35 H35           -7.9332     1.8755     1.1396 H       
  36 H36           -9.9346     3.3025    -1.5887 H       
  37 H37          -12.3088     3.9115    -1.3531 H       
  38 H38          -13.3656     3.9087     0.8710 H       
  39 H39          -12.0485     3.2962     2.8592 H       
  40 H40           -9.6765     2.6791     2.6225 H       
@<TRIPOS>BOND
   1    1    2 ar
   2    1    6 ar
   3    1    9 1
   4    2    3 ar
   5    2    8 1
   6    3    4 ar
   7    3   26 1
   8    4    5 ar
   9    4   27 1
  10    5    6 ar
  11    5   28 1
  12    7    8 1
  13    7    9 2
  14    8   29 1
  15    9   10 1
  16   10   11 1
  17   10   30 1
  18   11   12 ar
  19   11   16 ar
  20   12   13 ar
  21   12   31 1
  22   13   14 ar
  23   13   17 1
  24   14   15 ar
  25   14   18 1
  26   15   16 ar
  27   15   32 1
  28   16   33 1
  29   18   19 1
  30   19   20 1
  31   19   34 1
  32   19   35 1
  33   20   21 ar
  34   20   25 ar
  35   21   22 ar
  36   21   36 1
  37   22   23 ar
  38   22   37 1
  39   23   24 ar
  40   23   38 1
  41   24   25 ar
  42   24   39 1
  43   25   40 1

#	End of record

