#	Name: ASD01911118
#	Creating user name:	WinNT
#	Creation time:	15. 06. 2019 19:57

#	Modifying user name:	WinNT
#	Modification time:	15. 06. 2019 19:57

#	Program:	/corina/corina34_cracker 3.40 0067  02.08.2006

@<TRIPOS>MOLECULE
ASD01911118
  49   52    0    0    0
SMALL
NO_CHARGES


@<TRIPOS>ATOM
   1 C1            -0.4823     1.1050    -0.3082 C.2     
   2 O2             0.5561     1.6526    -0.6248 O.2     
   3 C3            -0.6124    -0.3592    -0.4342 C.ar    
   4 C4            -0.1966    -1.0056    -1.6065 C.ar    
   5 C5            -0.3235    -2.3823    -1.7139 C.ar    
   6 C6            -0.8573    -3.1118    -0.6699 C.ar    
   7 C7            -1.2697    -2.4768     0.4898 C.ar    
   8 C8            -1.1451    -1.1100     0.6162 C.ar    
   9 O9             0.3271    -0.2876    -2.6313 O.3     
  10 C10            0.7288    -1.0146    -3.7941 C.3     
  11 N11           -1.5127     1.8350     0.1629 N.am    
  12 C12           -2.8157     1.2087     0.4251 C.3     
  13 C13           -3.8990     1.9932    -0.3216 C.3     
  14 C14           -3.8197     3.4691     0.0755 C.3     
  15 C15           -2.4539     4.0334    -0.3222 C.3     
  16 C16           -1.3525     3.2709     0.4298 C.3     
  17 O17           -5.7925     1.3998     1.2643 O.3     
  18 N18           -6.8969     0.9009     1.2125 N.2     
  19 C19           -7.1877     0.5792    -0.0180 C.2     
  20 N20           -6.1329     0.9282    -0.7832 N.2     
  21 C21           -5.2559     1.4469     0.0411 C.2     
  22 O22           -8.3366     0.0009    -0.4478 O.3     
  23 C23           -9.2749    -0.3216     0.4810 C.ar    
  24 C24           -9.1156     0.0825     1.7985 C.ar    
  25 C25          -10.0723    -0.2472     2.7418 C.ar    
  26 C26          -11.1876    -0.9800     2.3704 C.ar    
  27 C27          -11.3465    -1.3827     1.0579 C.ar    
  28 C28          -10.3961    -1.0505     0.1116 C.ar    
  29 F29           -9.9185     0.1451     4.0254 F       
  30 H30           -0.0049    -2.8845    -2.6154 H       
  31 H31           -0.9541    -4.1838    -0.7585 H       
  32 H32           -1.6862    -3.0559     1.3007 H       
  33 H33           -1.4635    -0.6196     1.5242 H       
  34 H34            1.1290    -0.3226    -4.5351 H       
  35 H35            1.4960    -1.7396    -3.5223 H       
  36 H36           -0.1323    -1.5363    -4.2120 H       
  37 H37           -2.8029     0.1773     0.0727 H       
  38 H38           -3.0220     1.2288     1.4953 H       
  39 H39           -3.7428     1.8966    -1.3960 H       
  40 H40           -4.6054     4.0254    -0.4358 H       
  41 H41           -3.9514     3.5627     1.1534 H       
  42 H42           -2.3113     3.9176    -1.3967 H       
  43 H43           -2.4067     5.0904    -0.0603 H       
  44 H44           -1.4420     3.4558     1.5003 H       
  45 H45           -0.3741     3.6006     0.0805 H       
  46 H46           -8.2456     0.6535     2.0874 H       
  47 H47          -11.9338    -1.2373     3.1076 H       
  48 H48          -12.2169    -1.9540     0.7706 H       
  49 H49          -10.5239    -1.3617    -0.9147 H       
@<TRIPOS>BOND
   1    1    2 2
   2    1    3 1
   3    1   11 am
   4    3    4 ar
   5    3    8 ar
   6    4    5 ar
   7    4    9 1
   8    5    6 ar
   9    5   30 1
  10    6    7 ar
  11    6   31 1
  12    7    8 ar
  13    7   32 1
  14    8   33 1
  15    9   10 1
  16   10   34 1
  17   10   35 1
  18   10   36 1
  19   11   12 1
  20   11   16 1
  21   12   13 1
  22   12   37 1
  23   12   38 1
  24   13   14 1
  25   13   21 1
  26   13   39 1
  27   14   15 1
  28   14   40 1
  29   14   41 1
  30   15   16 1
  31   15   42 1
  32   15   43 1
  33   16   44 1
  34   16   45 1
  35   17   18 1
  36   17   21 1
  37   18   19 2
  38   19   20 1
  39   19   22 1
  40   20   21 2
  41   22   23 1
  42   23   24 ar
  43   23   28 ar
  44   24   25 ar
  45   24   46 1
  46   25   26 ar
  47   25   29 1
  48   26   27 ar
  49   26   47 1
  50   27   28 ar
  51   27   48 1
  52   28   49 1

#	End of record

