#	Name: ASD01881350
#	Creating user name:	WinNT
#	Creation time:	15. 06. 2019 19:42

#	Modifying user name:	WinNT
#	Modification time:	15. 06. 2019 19:42

#	Program:	/corina/corina34_cracker 3.40 0067  02.08.2006

@<TRIPOS>MOLECULE
ASD01881350
  25   26    0    0    0
SMALL
NO_CHARGES


@<TRIPOS>ATOM
   1 C1            -0.0188     1.5384     0.0105 C.3     
   2 C2             0.0021    -0.0041     0.0020 C.3     
   3 C3             1.1384    -0.3631    -0.9874 C.3     
   4 C4             0.9828     0.7122    -2.0913 C.3     
   5 C5             0.6047     1.9938    -1.3205 C.3     
   6 C6             1.3196     2.2797     0.0017 C.3     
   7 C7             0.3132    -0.5349     1.3777 C.2     
   8 O8             0.9292     0.1461     2.1629 O.2     
   9 O9            -0.0939    -1.7643     1.7306 O.3     
  10 C10            1.3283     3.7043     0.4932 C.2     
  11 O11            0.3033     4.2181     0.8743 O.2     
  12 O12            2.4747     4.4023     0.5075 O.3     
  13 O13            0.9463    -1.6729    -1.5255 O.3     
  14 F14            2.4703     1.5369     0.2867 F       
  15 N15           -1.2833    -0.5331    -0.4732 N.3     
  16 H16           -0.8959     2.0261     0.4361 H       
  17 H17            2.1118    -0.2820    -0.5036 H       
  18 H18            1.9236     0.8509    -2.6240 H       
  19 H19            0.1882     0.4353    -2.7842 H       
  20 H20            0.1783     2.8169    -1.8939 H       
  21 H21            0.1292    -2.0612     2.6234 H       
  22 H22            2.4305     5.3124     0.8313 H       
  23 H23            1.6315    -1.9455    -2.1511 H       
  24 H24           -1.2781    -1.5420    -0.4819 H       
  25 H25           -2.0475    -0.1802     0.0832 H       
@<TRIPOS>BOND
   1    1    2 1
   2    1    6 1
   3    1    5 1
   4    1   16 1
   5    2    7 1
   6    2   15 1
   7    2    3 1
   8    3    4 1
   9    3   13 1
  10    3   17 1
  11    4    5 1
  12    4   18 1
  13    4   19 1
  14    5    6 1
  15    5   20 1
  16    6   10 1
  17    6   14 1
  18    7    8 2
  19    7    9 1
  20    9   21 1
  21   10   11 2
  22   10   12 1
  23   12   22 1
  24   13   23 1
  25   15   24 1
  26   15   25 1

#	End of record

