#	Name: ASD05313246
#	Creating user name:	WinNT
#	Creation time:	15. 06. 2019 20:59

#	Modifying user name:	WinNT
#	Modification time:	15. 06. 2019 20:59

#	Program:	/corina/corina34_cracker 3.40 0067  02.08.2006

@<TRIPOS>MOLECULE
ASD05313246
  41   44    0    0    0
SMALL
NO_CHARGES


@<TRIPOS>ATOM
   1 C1            -0.4836     1.1655     1.2188 C.2     
   2 C2            -0.1926    -0.3057     1.0211 C.3     
   3 N3             0.4757     2.1190     1.2675 N.pl3   
   4 N4             1.2275    -0.4184     0.6412 N.am    
   5 C5             2.2068     0.3974     1.3753 C.3     
   6 C6             1.9133     1.8808     1.1250 C.3     
   7 N7            -1.6482     1.7267     1.3729 N.2     
   8 C8            -1.4909     3.0472     1.5272 C.2     
   9 C9            -0.1569     3.3206     1.4666 C.2     
  10 C10            0.4816     4.6470     1.5934 C.ar    
  11 C11            1.8551     4.7883     1.3764 C.ar    
  12 N12           -0.2498     5.7134     1.9094 N.ar    
  13 N13            2.4189     5.9751     1.4908 N.ar    
  14 C14            1.6870     7.0298     1.8100 C.ar    
  15 C15            0.3262     6.8965     2.0210 C.ar    
  16 C16            1.6170    -1.2450    -0.3495 C.2     
  17 O17            2.7765    -1.2522    -0.7145 O.2     
  18 C18            0.6346    -2.1426    -0.9919 C.ar    
  19 C19            0.6155    -2.2822    -2.3822 C.ar    
  20 C20           -0.3058    -3.1231    -2.9752 C.ar    
  21 C21           -1.2076    -3.8251    -2.1961 C.ar    
  22 C22           -1.1937    -3.6905    -0.8189 C.ar    
  23 C23           -0.2748    -2.8594    -0.2125 C.ar    
  24 C24           -0.3289    -3.2757    -4.4743 C.3     
  25 F25           -1.3396    -4.1726    -4.8363 F       
  26 F26           -0.5751    -2.0321    -5.0659 F       
  27 F27            0.9068    -3.7640    -4.9124 F       
  28 Cl28           1.7461    -1.4008    -3.3611 Cl      
  29 H29           -0.3733    -0.8483     1.9490 H       
  30 H30           -0.8227    -0.7057     0.2267 H       
  31 H31            2.1305     0.1860     2.4419 H       
  32 H32            3.2122     0.1610     1.0270 H       
  33 H33            2.2285     2.1488     0.1166 H       
  34 H34            2.4564     2.4870     1.8500 H       
  35 H35           -2.2812     3.7680     1.6761 H       
  36 H36            2.4533     3.9276     1.1161 H       
  37 H37            2.1531     7.9996     1.9029 H       
  38 H38           -0.2666     7.7622     2.2773 H       
  39 H39           -1.9262    -4.4810    -2.6648 H       
  40 H40           -1.9013    -4.2412    -0.2169 H       
  41 H41           -0.2623    -2.7598     0.8628 H       
@<TRIPOS>BOND
   1    1    2 1
   2    1    3 1
   3    1    7 2
   4    2    4 1
   5    2   29 1
   6    2   30 1
   7    3    6 1
   8    3    9 1
   9    4    5 1
  10    4   16 am
  11    5    6 1
  12    5   31 1
  13    5   32 1
  14    6   33 1
  15    6   34 1
  16    7    8 1
  17    8    9 2
  18    8   35 1
  19    9   10 1
  20   10   11 ar
  21   10   12 ar
  22   11   13 ar
  23   11   36 1
  24   12   15 ar
  25   13   14 ar
  26   14   15 ar
  27   14   37 1
  28   15   38 1
  29   16   17 2
  30   16   18 1
  31   18   19 ar
  32   18   23 ar
  33   19   20 ar
  34   19   28 1
  35   20   21 ar
  36   20   24 1
  37   21   22 ar
  38   21   39 1
  39   22   23 ar
  40   22   40 1
  41   23   41 1
  42   24   25 1
  43   24   26 1
  44   24   27 1

#	End of record

