#	Name: ASD01814466
#	Creating user name:	WinNT
#	Creation time:	15. 06. 2019 19:32

#	Modifying user name:	WinNT
#	Modification time:	15. 06. 2019 19:32

#	Program:	/corina/corina34_cracker 3.40 0067  02.08.2006

@<TRIPOS>MOLECULE
ASD01814466
  55   60    0    0    0
SMALL
NO_CHARGES


@<TRIPOS>ATOM
   1 C1            -0.0167     1.3818     0.0096 C.ar    
   2 C2             0.0021    -0.0041     0.0020 C.ar    
   3 C3             1.1970    -0.6935    -0.0127 C.ar    
   4 C4             2.3990     0.0036    -0.0204 C.ar    
   5 C5             2.3750     1.4118    -0.0131 C.ar    
   6 C6             1.1663     2.0939     0.0022 C.ar    
   7 N7             3.6103    -0.6575    -0.0347 N.pl3   
   8 N8             4.7456    -0.0608    -0.0419 N.2     
   9 C9             4.8828     1.2398    -0.0366 C.2     
  10 C10            3.6771     2.1039    -0.0219 C.2     
  11 C11            6.0123     2.1723    -0.0425 C.2     
  12 N12            5.4768     3.4119    -0.0316 N.am    
  13 N13            4.0816     3.3386    -0.0196 N.2     
  14 C14            3.5988    -2.1224    -0.0414 C.3     
  15 C15            3.5818    -2.6181    -1.4645 C.ar    
  16 C16            4.7721    -2.8579    -2.1370 C.ar    
  17 C17            4.7135    -3.3129    -3.4424 C.ar    
  18 C18            3.4674    -3.5138    -4.0342 C.ar    
  19 N19            2.3521    -3.2720    -3.3562 N.ar    
  20 C20            2.3806    -2.8437    -2.1102 C.ar    
  21 O21            7.1981     1.8866    -0.0544 O.2     
  22 C22            6.2491     4.6568    -0.0324 C.3     
  23 C23            3.3873    -4.0008    -5.4316 C.2     
  24 C24            5.8940     5.4766    -1.2745 C.3     
  25 C25            6.7005     6.7767    -1.2753 C.3     
  26 C26            6.3676     7.5841    -0.0191 C.3     
  27 C27            6.7228     6.7644     1.2230 C.3     
  28 C28            5.9162     5.4643     1.2238 C.3     
  29 C29            2.2174    -4.2175    -6.0679 C.2     
  30 S30            2.5841    -4.7858    -7.6946 S.3     
  31 C31            4.2585    -4.6793    -7.3687 C.2     
  32 N32            4.4587    -4.2567    -6.1692 N.2     
  33 O33            6.2479     4.6987     2.3839 O.3     
  34 H34           -0.9605     1.9069     0.0170 H       
  35 H35           -0.9294    -0.5506     0.0080 H       
  36 H36            1.1982    -1.7735    -0.0178 H       
  37 H37            1.1511     3.1738     0.0077 H       
  38 H38            4.4906    -2.4951     0.4625 H       
  39 H39            2.7107    -2.4812     0.4789 H       
  40 H40            5.7230    -2.6926    -1.6522 H       
  41 H41            5.6203    -3.5093    -3.9951 H       
  42 H42            1.4528    -2.6578    -1.5896 H       
  43 H43            7.3139     4.4239    -0.0430 H       
  44 H44            6.1311     4.9013    -2.1695 H       
  45 H45            4.8292     5.7095    -1.2639 H       
  46 H46            7.7653     6.5437    -1.2859 H       
  47 H47            6.4475     7.3607    -2.1602 H       
  48 H48            6.9422     8.5104    -0.0196 H       
  49 H49            5.3029     7.8171    -0.0084 H       
  50 H50            7.7875     6.5315     1.2124 H       
  51 H51            6.4856     7.3397     2.1180 H       
  52 H52            4.8515     5.6972     1.2345 H       
  53 H53            1.2311    -4.0694    -5.6534 H       
  54 H54            5.0394    -4.9281    -8.0720 H       
  55 H55            6.0629     5.1498     3.2190 H       
@<TRIPOS>BOND
   1    1    2 ar
   2    1    6 ar
   3    1   34 1
   4    2    3 ar
   5    2   35 1
   6    3    4 ar
   7    3   36 1
   8    4    5 ar
   9    4    7 1
  10    5    6 ar
  11    5   10 1
  12    6   37 1
  13    7    8 1
  14    7   14 1
  15    8    9 2
  16    9   10 1
  17    9   11 1
  18   10   13 2
  19   11   12 am
  20   11   21 2
  21   12   13 1
  22   12   22 1
  23   14   15 1
  24   14   38 1
  25   14   39 1
  26   15   16 ar
  27   15   20 ar
  28   16   17 ar
  29   16   40 1
  30   17   18 ar
  31   17   41 1
  32   18   19 ar
  33   18   23 1
  34   19   20 ar
  35   20   42 1
  36   22   24 1
  37   22   28 1
  38   22   43 1
  39   23   29 2
  40   23   32 1
  41   24   25 1
  42   24   44 1
  43   24   45 1
  44   25   26 1
  45   25   46 1
  46   25   47 1
  47   26   27 1
  48   26   48 1
  49   26   49 1
  50   27   28 1
  51   27   50 1
  52   27   51 1
  53   28   33 1
  54   28   52 1
  55   29   30 1
  56   29   53 1
  57   30   31 1
  58   31   32 2
  59   31   54 1
  60   33   55 1

#	End of record

