#	Name: ASD03092164
#	Creating user name:	WinNT
#	Creation time:	15. 06. 2019 20:32

#	Modifying user name:	WinNT
#	Modification time:	15. 06. 2019 20:32

#	Program:	/corina/corina34_cracker 3.40 0067  02.08.2006

@<TRIPOS>MOLECULE
ASD03092164
  47   50    0    0    0
SMALL
NO_CHARGES


@<TRIPOS>ATOM
   1 N1             0.0492     1.1136    -0.2579 N.pl3   
   2 C2            -0.1093    -0.1676     0.1794 C.2     
   3 C3            -1.4482    -0.3812     0.3440 C.2     
   4 C4            -2.1159     0.8005    -0.0024 C.2     
   5 N5            -1.2215     1.6944    -0.3558 N.2     
   6 N6            -3.5018     0.9970     0.0286 N.pl3   
   7 C7            -4.0342     2.2643    -0.2277 C.ar    
   8 C8            -5.3229     2.3881    -0.7305 C.ar    
   9 C9            -5.8483     3.6425    -0.9837 C.ar    
  10 C10           -5.0890     4.7756    -0.7363 C.ar    
  11 C11           -3.2768     3.4005     0.0254 C.ar    
  12 C12            0.9708    -1.1474     0.4294 C.ar    
  13 C13            1.3230     1.7689    -0.5649 C.3     
  14 C14            0.7513    -2.2272     1.2846 C.ar    
  15 C15            1.7603    -3.1387     1.5167 C.ar    
  16 C16            2.9959    -2.9857     0.9025 C.ar    
  17 C17            3.2200    -1.9120     0.0461 C.ar    
  18 C18            2.2097    -0.9969    -0.1940 C.ar    
  19 C19           -3.8025     4.6535    -0.2346 C.ar    
  20 C20            1.6224     1.6215    -2.0345 C.2     
  21 N21            2.7507     2.1497    -2.5486 N.am    
  22 O22            0.8479     1.0276    -2.7545 O.2     
  23 O23            3.9797    -3.8928     1.1524 O.3     
  24 C24            5.0777    -3.9211     0.2342 C.3     
  25 C25            5.5290    -2.4766    -0.0206 C.3     
  26 O26            4.4232    -1.7521    -0.5703 O.3     
  27 C27            3.0417     2.0064    -3.9773 C.3     
  28 F28           -5.6030     6.0000    -0.9849 F       
  29 F29           -7.1019     3.7633    -1.4727 F       
  30 F30           -3.0639     5.7588     0.0059 F       
  31 H31           -1.9098    -1.2977     0.6808 H       
  32 H32           -4.0927     0.2540     0.2280 H       
  33 H33           -5.9144     1.5055    -0.9239 H       
  34 H34           -2.2763     3.3059     0.4209 H       
  35 H35            1.2576     2.8270    -0.3117 H       
  36 H36            2.1197     1.3048     0.0165 H       
  37 H37           -0.2081    -2.3495     1.7651 H       
  38 H38            1.5886    -3.9743     2.1790 H       
  39 H39            2.3831    -0.1621    -0.8569 H       
  40 H40            3.3701     2.6246    -1.9728 H       
  41 H41            5.9007    -4.4930     0.6629 H       
  42 H42            4.7611    -4.3780    -0.7034 H       
  43 H43            5.8392    -2.0174     0.9180 H       
  44 H44            6.3599    -2.4701    -0.7260 H       
  45 H45            3.1072     0.9482    -4.2304 H       
  46 H46            2.2450     2.4705    -4.5587 H       
  47 H47            3.9895     2.4939    -4.2057 H       
@<TRIPOS>BOND
   1    1    2 1
   2    1   13 1
   3    1    5 1
   4    2    3 2
   5    2   12 1
   6    3    4 1
   7    3   31 1
   8    4    5 2
   9    4    6 1
  10    6    7 1
  11    6   32 1
  12    7    8 ar
  13    7   11 ar
  14    8    9 ar
  15    8   33 1
  16    9   10 ar
  17    9   29 1
  18   10   19 ar
  19   10   28 1
  20   11   19 ar
  21   11   34 1
  22   12   14 ar
  23   12   18 ar
  24   13   20 1
  25   13   35 1
  26   13   36 1
  27   14   15 ar
  28   14   37 1
  29   15   16 ar
  30   15   38 1
  31   16   17 ar
  32   16   23 1
  33   17   18 ar
  34   17   26 1
  35   18   39 1
  36   19   30 1
  37   20   21 am
  38   20   22 2
  39   21   27 1
  40   21   40 1
  41   23   24 1
  42   24   25 1
  43   24   41 1
  44   24   42 1
  45   25   26 1
  46   25   43 1
  47   25   44 1
  48   27   45 1
  49   27   46 1
  50   27   47 1

#	End of record

