#	Name: ASD03091814
#	Creating user name:	WinNT
#	Creation time:	15. 06. 2019 20:31

#	Modifying user name:	WinNT
#	Modification time:	15. 06. 2019 20:31

#	Program:	/corina/corina34_cracker 3.40 0067  02.08.2006

@<TRIPOS>MOLECULE
ASD03091814
  46   50    0    0    0
SMALL
NO_CHARGES


@<TRIPOS>ATOM
   1 N1            -0.0169     1.3925     0.0097 N.pl3   
   2 C2             1.2104    -0.6908    -0.0132 C.ar    
   3 C3             0.0021    -0.0041     0.0020 C.ar    
   4 C4            -1.1906    -0.7255     0.0100 C.ar    
   5 C5            -1.1251    -2.1067     0.0024 C.ar    
   6 C6             0.1227    -2.7272    -0.0129 C.ar    
   7 N7             1.2372    -2.0073    -0.0201 N.ar    
   8 N8             0.6939    -8.3112    -0.0421 N.pl3   
   9 C9             2.0581    -8.4156    -0.0564 C.2     
  10 C10            2.6110    -7.1926    -0.0572 C.2     
  11 C11            1.5103    -6.2255    -0.0421 C.ar    
  12 C12            1.4453    -4.8324    -0.0359 C.ar    
  13 C13            0.2056    -4.2079    -0.0207 C.ar    
  14 C14           -0.9658    -4.9732    -0.0122 C.ar    
  15 C15           -0.9071    -6.3366    -0.0182 C.ar    
  16 C16            0.3251    -6.9847    -0.0330 C.ar    
  17 C17            2.2926     4.3577    -0.4661 C.3     
  18 C18            1.0038     3.5306    -0.5989 C.3     
  19 C19            1.2418     2.1422     0.0017 C.3     
  20 C20            1.7609     2.2813     1.4357 C.3     
  21 C21            2.9983     3.1931     1.4306 C.3     
  22 C22            3.9355     2.7121     0.2989 C.3     
  23 C23            3.4692     3.4817    -0.9544 C.3     
  24 N24            2.5513     4.5403     0.9869 N.3     
  25 H25           -0.8634     1.8660     0.0163 H       
  26 H26            2.1382    -0.1381    -0.0240 H       
  27 H27           -2.1436    -0.2176     0.0222 H       
  28 H28           -2.0295    -2.6971     0.0086 H       
  29 H29            0.0779    -9.0605    -0.0424 H       
  30 H30            2.6086    -9.3447    -0.0652 H       
  31 H31            3.6666    -6.9646    -0.0668 H       
  32 H32            2.3514    -4.2448    -0.0417 H       
  33 H33           -1.9264    -4.4797    -0.0003 H       
  34 H34           -1.8193    -6.9147    -0.0112 H       
  35 H35            2.2311     5.3030    -1.0053 H       
  36 H36            0.1948     4.0266    -0.0627 H       
  37 H37            0.7399     3.4325    -1.6519 H       
  38 H38            1.9779     1.6084    -0.5994 H       
  39 H39            0.9859     2.7211     2.0634 H       
  40 H40            2.0327     1.2991     1.8224 H       
  41 H41            3.4979     3.2126     2.3991 H       
  42 H42            4.9709     2.9599     0.5328 H       
  43 H43            3.8267     1.6382     0.1470 H       
  44 H44            3.1310     2.7862    -1.7226 H       
  45 H45            4.2752     4.1079    -1.3367 H       
  46 H46            3.2716     5.2296     1.1421 H       
@<TRIPOS>BOND
   1    1    3 1
   2    1   19 1
   3    1   25 1
   4    2    3 ar
   5    2    7 ar
   6    2   26 1
   7    3    4 ar
   8    4    5 ar
   9    4   27 1
  10    5    6 ar
  11    5   28 1
  12    6    7 ar
  13    6   13 1
  14    8    9 1
  15    8   16 1
  16    8   29 1
  17    9   10 2
  18    9   30 1
  19   10   11 1
  20   10   31 1
  21   11   12 ar
  22   11   16 ar
  23   12   13 ar
  24   12   32 1
  25   13   14 ar
  26   14   15 ar
  27   14   33 1
  28   15   16 ar
  29   15   34 1
  30   17   18 1
  31   17   23 1
  32   17   24 1
  33   17   35 1
  34   18   19 1
  35   18   36 1
  36   18   37 1
  37   19   20 1
  38   19   38 1
  39   20   21 1
  40   20   39 1
  41   20   40 1
  42   21   22 1
  43   21   24 1
  44   21   41 1
  45   22   23 1
  46   22   42 1
  47   22   43 1
  48   23   44 1
  49   23   45 1
  50   24   46 1

#	End of record

