#	Name: ASD01912199
#	Creating user name:	WinNT
#	Creation time:	15. 06. 2019 19:59

#	Modifying user name:	WinNT
#	Modification time:	15. 06. 2019 19:59

#	Program:	/corina/corina34_cracker 3.40 0067  02.08.2006

@<TRIPOS>MOLECULE
ASD01912199
  55   58    0    0    0
SMALL
NO_CHARGES


@<TRIPOS>ATOM
   1 C1            -0.0166     1.3756     0.0096 C.ar    
   2 C2             0.0021    -0.0041     0.0020 C.ar    
   3 C3             1.2191    -0.6822    -0.0133 C.ar    
   4 C4             2.4126     0.0367    -0.0209 C.ar    
   5 C5             2.3848     1.4162    -0.0132 C.ar    
   6 C6             1.1724     2.0866     0.0021 C.ar    
   7 C7             1.2442    -2.1662    -0.0210 C.2     
   8 N8             0.1931    -2.9584    -0.0152 N.2     
   9 C9             2.3968    -2.9754    -0.0420 C.2     
  10 C10            1.9968    -4.2657    -0.0425 C.2     
  11 N11            0.6467    -4.2836    -0.0261 N.pl3   
  12 C12            2.8987    -5.4728    -0.0622 C.3     
  13 C13           -0.1972    -5.4811    -0.0211 C.3     
  14 C14           -0.4692    -5.8980     1.4013 C.2     
  15 N15           -1.2295    -6.9822     1.6521 N.am    
  16 O16           -0.0040    -5.2578     2.3204 O.2     
  17 C17           -1.5073    -7.4065     3.0327 C.3     
  18 C18           -1.8084    -7.7690     0.5525 C.3     
  19 C19           -3.3090    -7.9383     0.8126 C.3     
  20 N20           -3.5096    -8.5037     2.1535 N.3     
  21 C21           -3.0204    -7.5908     3.1901 C.3     
  22 C22           -4.8401    -8.8221     2.3636 C.ar    
  23 N23           -5.2042    -9.3454     3.5251 N.ar    
  24 N24           -5.7202    -8.5913     1.4005 N.ar    
  25 C25           -6.9992    -8.8835     1.5691 C.ar    
  26 C26           -7.4136    -9.4371     2.7703 C.ar    
  27 C27           -6.4675    -9.6606     3.7583 C.ar    
  28 F28            1.1497     3.4373     0.0095 F       
  29 C29            4.1383    -5.1696    -0.9063 C.3     
  30 C30            3.3258    -5.8137     1.3669 C.3     
  31 H31           -0.9596     1.9021     0.0169 H       
  32 H32           -0.9253    -0.5575     0.0083 H       
  33 H33            3.3582    -0.4851    -0.0324 H       
  34 H34            3.3095     1.9743    -0.0187 H       
  35 H35            3.4187    -2.6263    -0.0559 H       
  36 H36            2.3638    -6.3191    -0.4932 H       
  37 H37           -1.1402    -5.2632    -0.5225 H       
  38 H38            0.3147    -6.2885    -0.5448 H       
  39 H39           -1.0005    -8.3501     3.2348 H       
  40 H40           -1.1572    -6.6433     3.7277 H       
  41 H41           -1.6572    -7.2455    -0.3915 H       
  42 H42           -1.3310    -8.7481     0.5120 H       
  43 H43           -3.8009    -6.9676     0.7498 H       
  44 H44           -3.7338    -8.6106     0.0671 H       
  45 H45           -3.2311    -8.0109     4.1736 H       
  46 H46           -3.5199    -6.6270     3.0912 H       
  47 H47           -7.7120    -8.6927     0.7805 H       
  48 H48           -8.4519    -9.6849     2.9346 H       
  49 H49           -6.7576   -10.0906     4.7056 H       
  50 H50            4.6732    -4.3234    -0.4754 H       
  51 H51            4.7906    -6.0428    -0.9206 H       
  52 H52            3.8340    -4.9268    -1.9244 H       
  53 H53            2.4428    -6.0297     1.9683 H       
  54 H54            3.9782    -6.6869     1.3526 H       
  55 H55            3.8608    -4.9675     1.7979 H       
@<TRIPOS>BOND
   1    1    2 ar
   2    1    6 ar
   3    1   31 1
   4    2    3 ar
   5    2   32 1
   6    3    4 ar
   7    3    7 1
   8    4    5 ar
   9    4   33 1
  10    5    6 ar
  11    5   34 1
  12    6   28 1
  13    7    8 2
  14    7    9 1
  15    8   11 1
  16    9   10 2
  17    9   35 1
  18   10   11 1
  19   10   12 1
  20   11   13 1
  21   12   29 1
  22   12   30 1
  23   12   36 1
  24   13   14 1
  25   13   37 1
  26   13   38 1
  27   14   15 am
  28   14   16 2
  29   15   17 1
  30   15   18 1
  31   17   21 1
  32   17   39 1
  33   17   40 1
  34   18   19 1
  35   18   41 1
  36   18   42 1
  37   19   20 1
  38   19   43 1
  39   19   44 1
  40   20   21 1
  41   20   22 1
  42   21   45 1
  43   21   46 1
  44   22   23 ar
  45   22   24 ar
  46   23   27 ar
  47   24   25 ar
  48   25   26 ar
  49   25   47 1
  50   26   27 ar
  51   26   48 1
  52   27   49 1
  53   29   50 1
  54   29   51 1
  55   29   52 1
  56   30   53 1
  57   30   54 1
  58   30   55 1

#	End of record

