#	Name: ASD03090152
#	Creating user name:	WinNT
#	Creation time:	15. 06. 2019 20:28

#	Modifying user name:	WinNT
#	Modification time:	15. 06. 2019 20:28

#	Program:	/corina/corina34_cracker 3.40 0067  02.08.2006

@<TRIPOS>MOLECULE
ASD03090152
  36   38    0    0    0
SMALL
NO_CHARGES


@<TRIPOS>ATOM
   1 N1             0.3695     1.6045    -0.4268 N.ar    
   2 C2             0.3095     0.2944    -0.2842 C.ar    
   3 C3             1.4598    -0.4657    -0.2289 C.ar    
   4 C4             2.7005     0.1734    -0.3269 C.ar    
   5 C5             2.7166     1.5642    -0.4775 C.ar    
   6 C6             1.5180     2.2462    -0.5229 C.ar    
   7 C7             3.9610    -0.6004    -0.2721 C.2     
   8 N8             5.8579    -3.5532    -0.4633 N.pl3   
   9 C9             4.9765    -4.6256    -0.6294 C.ar    
  10 C10            3.6108    -4.4351    -0.4678 C.ar    
  11 C11            2.7419    -5.4979    -0.6328 C.ar    
  12 C12            3.2322    -6.7502    -0.9581 C.ar    
  13 C13            4.5922    -6.9433    -1.1193 C.ar    
  14 C14            5.4653    -5.8840    -0.9624 C.ar    
  15 N15            4.0812    -1.9001    -0.4539 N.2     
  16 C16            5.3610    -2.2549    -0.3331 C.2     
  17 N17            6.0789    -1.1863    -0.0720 N.2     
  18 N18            5.1926    -0.0977    -0.0326 N.pl3   
  19 C19            5.5341     1.3034     0.2250 C.3     
  20 C20            5.8501     2.0030    -1.0985 C.3     
  21 O21            6.1831     3.3697    -0.8472 O.3     
  22 Cl22           7.1722    -6.1275    -1.1649 Cl      
  23 Cl23           1.0340    -5.2609    -0.4310 Cl      
  24 H24           -0.6530    -0.1897    -0.2095 H       
  25 H25            1.4032    -1.5378    -0.1113 H       
  26 H26            3.6533     2.0961    -0.5565 H       
  27 H27            1.5201     3.3199    -0.6393 H       
  28 H28            6.8147    -3.7111    -0.4384 H       
  29 H29            3.2277    -3.4580    -0.2132 H       
  30 H30            2.5514    -7.5788    -1.0861 H       
  31 H31            4.9717    -7.9221    -1.3729 H       
  32 H32            4.6917     1.8001     0.7065 H       
  33 H33            6.4054     1.3509     0.8782 H       
  34 H34            6.6925     1.5063    -1.5799 H       
  35 H35            4.9787     1.9556    -1.7516 H       
  36 H36            6.3955     3.8756    -1.6434 H       
@<TRIPOS>BOND
   1    1    2 ar
   2    1    6 ar
   3    2    3 ar
   4    2   24 1
   5    3    4 ar
   6    3   25 1
   7    4    5 ar
   8    4    7 1
   9    5    6 ar
  10    5   26 1
  11    6   27 1
  12    7   15 2
  13    7   18 1
  14    8    9 1
  15    8   16 1
  16    8   28 1
  17    9   10 ar
  18    9   14 ar
  19   10   11 ar
  20   10   29 1
  21   11   12 ar
  22   11   23 1
  23   12   13 ar
  24   12   30 1
  25   13   14 ar
  26   13   31 1
  27   14   22 1
  28   15   16 1
  29   16   17 2
  30   17   18 1
  31   18   19 1
  32   19   20 1
  33   19   32 1
  34   19   33 1
  35   20   21 1
  36   20   34 1
  37   20   35 1
  38   21   36 1

#	End of record

