#	Name: ASD01883345
#	Creating user name:	WinNT
#	Creation time:	15. 06. 2019 19:46

#	Modifying user name:	WinNT
#	Modification time:	15. 06. 2019 19:46

#	Program:	/corina/corina34_cracker 3.40 0067  02.08.2006

@<TRIPOS>MOLECULE
ASD01883345
  43   44    0    0    0
SMALL
NO_CHARGES


@<TRIPOS>ATOM
   1 N1            -0.0162     1.3418     0.0094 N.am    
   2 C2             0.0021    -0.0041     0.0020 C.2     
   3 C3            -1.2147    -0.7262     0.0102 C.2     
   4 C4            -2.4239    -0.0108     0.0261 C.2     
   5 C5            -2.3777     1.3956     0.0332 C.2     
   6 C6            -1.1861     2.0320     0.0299 C.2     
   7 O7             1.0658    -0.6002    -0.0122 O.2     
   8 C8            -1.2137    -2.1582     0.0021 C.1     
   9 N9            -1.2130    -3.2942    -0.0044 N.1     
  10 N10           -3.6309    -0.6732     0.0341 N.pl3   
  11 C11            1.2510     2.0769     0.0013 C.3     
  12 C12            1.6783     2.3406    -1.4440 C.3     
  13 C13           -4.8833     0.0867     0.0506 C.3     
  14 C14            3.0017     3.1084    -1.4525 C.3     
  15 C15            3.4922     3.2633    -2.8934 C.3     
  16 C16            2.7927     4.4918    -0.8334 C.3     
  17 C17           -6.0497    -0.8675     0.0565 C.ar    
  18 C18           -6.5730    -1.3119     1.2563 C.ar    
  19 C19           -7.6429    -2.1872     1.2618 C.ar    
  20 C20           -8.1898    -2.6177     0.0674 C.ar    
  21 C21           -7.6671    -2.1726    -1.1324 C.ar    
  22 C22           -6.5999    -1.2939    -1.1378 C.ar    
  23 H23           -3.2946     1.9661     0.0450 H       
  24 H24           -1.1631     3.1117     0.0354 H       
  25 H25           -3.6520    -1.6429     0.0288 H       
  26 H26            1.1236     3.0263     0.5214 H       
  27 H27            2.0167     1.4867     0.5046 H       
  28 H28            1.8057     1.3912    -1.9642 H       
  29 H29            0.9126     2.9308    -1.9474 H       
  30 H30           -4.9187     0.7094     0.9445 H       
  31 H31           -4.9360     0.7195    -0.8353 H       
  32 H32            3.7440     2.5594    -0.8731 H       
  33 H33            2.7499     3.8122    -3.4729 H       
  34 H34            4.4350     3.8102    -2.8995 H       
  35 H35            3.6411     2.2777    -3.3345 H       
  36 H36            2.0504     5.0408    -1.4128 H       
  37 H37            2.4433     4.3815     0.1932 H       
  38 H38            3.7355     5.0388    -0.8395 H       
  39 H39           -6.1457    -0.9756     2.1894 H       
  40 H40           -8.0513    -2.5350     2.1991 H       
  41 H41           -9.0253    -3.3021     0.0716 H       
  42 H42           -8.0941    -2.5092    -2.0655 H       
  43 H43           -6.1916    -0.9461    -2.0751 H       
@<TRIPOS>BOND
   1    1    2 am
   2    1   11 1
   3    1    6 1
   4    2    3 1
   5    2    7 2
   6    3    4 2
   7    3    8 1
   8    4    5 1
   9    4   10 1
  10    5    6 2
  11    5   23 1
  12    6   24 1
  13    8    9 3
  14   10   13 1
  15   10   25 1
  16   11   12 1
  17   11   26 1
  18   11   27 1
  19   12   14 1
  20   12   28 1
  21   12   29 1
  22   13   17 1
  23   13   30 1
  24   13   31 1
  25   14   15 1
  26   14   16 1
  27   14   32 1
  28   15   33 1
  29   15   34 1
  30   15   35 1
  31   16   36 1
  32   16   37 1
  33   16   38 1
  34   17   18 ar
  35   17   22 ar
  36   18   19 ar
  37   18   39 1
  38   19   20 ar
  39   19   40 1
  40   20   21 ar
  41   20   41 1
  42   21   22 ar
  43   21   42 1
  44   22   43 1

#	End of record

