#	Name: ASD03090470
#	Creating user name:	WinNT
#	Creation time:	15. 06. 2019 20:28

#	Modifying user name:	WinNT
#	Modification time:	15. 06. 2019 20:28

#	Program:	/corina/corina34_cracker 3.40 0067  02.08.2006

@<TRIPOS>MOLECULE
ASD03090470
  38   40    0    0    0
SMALL
NO_CHARGES


@<TRIPOS>ATOM
   1 C1            -0.0181     1.5035     0.0018 C.2     
   2 C2             0.0032    -0.0034    -0.0070 C.3     
   3 O3             1.0235     2.1247    -0.0119 O.2     
   4 N4            -1.1946     2.1607     0.0195 N.am    
   5 N5             4.2537    -1.4400    -2.2861 N.pl3   
   6 C6             5.4512    -1.8445    -1.7622 C.2     
   7 C7             5.3941    -1.8245    -0.4211 C.2     
   8 C8             4.0500    -1.3700    -0.0565 C.ar    
   9 C9             3.3964    -1.1484     1.1573 C.ar    
  10 C10            2.1017    -0.7121     1.1607 C.ar    
  11 C11            1.4308    -0.4855    -0.0334 C.ar    
  12 C12            2.0566    -0.6972    -1.2421 C.ar    
  13 C13            3.3745    -1.1423    -1.2692 C.ar    
  14 C14           -1.2153     3.5523     0.1325 C.ar    
  15 C15           -2.4230     4.2436     0.0376 C.ar    
  16 C16           -2.3925     5.6226     0.1566 C.ar    
  17 C17           -1.1572     6.2338     0.3637 C.ar    
  18 N18           -0.0625     5.4967     0.4405 N.ar    
  19 N19           -0.0903     4.2179     0.3354 N.ar    
  20 O20           -1.0782     7.5837     0.4859 O.3     
  21 C21            0.2206     8.1411     0.6966 C.3     
  22 C22            0.1103     9.6630     0.8092 C.3     
  23 H23           -0.4906    -0.3790     0.8892 H       
  24 H24           -0.5202    -0.3689    -0.8905 H       
  25 H25           -2.0270     1.6670    -0.0464 H       
  26 H26            4.0550    -1.3696    -3.2329 H       
  27 H27            6.3144    -2.1370    -2.3416 H       
  28 H28            6.1883    -2.0926     0.2598 H       
  29 H29            3.9120    -1.3226     2.0901 H       
  30 H30            1.5965    -0.5412     2.0998 H       
  31 H31            1.5260    -0.5184    -2.1656 H       
  32 H32           -3.3532     3.7194    -0.1241 H       
  33 H33           -3.2983     6.2070     0.0905 H       
  34 H34            0.6439     7.7385     1.6168 H       
  35 H35            0.8666     7.8848    -0.1431 H       
  36 H36            1.1010    10.0882     0.9699 H       
  37 H37           -0.3130    10.0656    -0.1111 H       
  38 H38           -0.5357     9.9194     1.6488 H       
@<TRIPOS>BOND
   1    1    2 1
   2    1    3 2
   3    1    4 am
   4    2   11 1
   5    2   23 1
   6    2   24 1
   7    4   14 1
   8    4   25 1
   9    5    6 1
  10    5   13 1
  11    5   26 1
  12    6    7 2
  13    6   27 1
  14    7    8 1
  15    7   28 1
  16    8    9 ar
  17    8   13 ar
  18    9   10 ar
  19    9   29 1
  20   10   11 ar
  21   10   30 1
  22   11   12 ar
  23   12   13 ar
  24   12   31 1
  25   14   15 ar
  26   14   19 ar
  27   15   16 ar
  28   15   32 1
  29   16   17 ar
  30   16   33 1
  31   17   18 ar
  32   17   20 1
  33   18   19 ar
  34   20   21 1
  35   21   22 1
  36   21   34 1
  37   21   35 1
  38   22   36 1
  39   22   37 1
  40   22   38 1

#	End of record

