#	Name: ASD01870678
#	Creating user name:	WinNT
#	Creation time:	15. 06. 2019 19:39

#	Modifying user name:	WinNT
#	Modification time:	15. 06. 2019 19:39

#	Program:	/corina/corina34_cracker 3.40 0067  02.08.2006

@<TRIPOS>MOLECULE
ASD01870678
  38   41    0    0    0
SMALL
NO_CHARGES


@<TRIPOS>ATOM
   1 C1            -0.0174     1.4475     0.0142 C.2     
   2 C2             0.0021    -0.0041    -0.0009 C.2     
   3 C3             1.2282    -0.5352    -0.0717 C.2     
   4 S4             2.4387     0.6593    -0.1251 S.3     
   5 C5             1.2694     1.9672    -0.0497 C.2     
   6 C6            -1.2300    -0.8268     0.0572 C.ar    
   7 C7            -1.4318    -1.8508    -0.8668 C.ar    
   8 C8            -2.5805    -2.6133    -0.8079 C.ar    
   9 C9            -3.5308    -2.3630     0.1657 C.ar    
  10 C10           -3.3360    -1.3482     1.0853 C.ar    
  11 C11           -2.1885    -0.5830     1.0397 C.ar    
  12 N12           -1.0678     2.3087     0.0840 N.2     
  13 C13            1.4388     3.3735    -0.0448 C.2     
  14 N14            0.3426     4.1567     0.0219 N.am    
  15 C15           -0.8944     3.5946     0.0862 C.2     
  16 C16            0.4786     5.5518     0.0290 C.ar    
  17 C17            1.0621     6.1873     1.1171 C.ar    
  18 C18            1.1957     7.5614     1.1235 C.ar    
  19 C19            0.7468     8.3074     0.0432 C.ar    
  20 C20            0.1634     7.6731    -1.0441 C.ar    
  21 C21            0.0352     6.2984    -1.0546 C.ar    
  22 O22            2.5533     3.8662    -0.0994 O.2     
  23 O23            0.8783     9.6604     0.0503 O.3     
  24 C24            0.3944    10.3653    -1.0948 C.3     
  25 H25            1.4261    -1.5967    -0.0926 H       
  26 H26           -0.6907    -2.0468    -1.6276 H       
  27 H27           -2.7380    -3.4067    -1.5235 H       
  28 H28           -4.4285    -2.9621     0.2078 H       
  29 H29           -4.0815    -1.1571     1.8430 H       
  30 H30           -2.0352     0.2060     1.7611 H       
  31 H31           -1.7594     4.2389     0.1427 H       
  32 H32            1.4109     5.6068     1.9583 H       
  33 H33            1.6495     8.0558     1.9697 H       
  34 H34           -0.1862     8.2543    -1.8846 H       
  35 H35           -0.4143     5.8043    -1.9032 H       
  36 H36            0.5602    11.4341    -0.9603 H       
  37 H37            0.9260    10.0240    -1.9830 H       
  38 H38           -0.6723    10.1753    -1.2143 H       
@<TRIPOS>BOND
   1    1    2 1
   2    1    5 2
   3    1   12 1
   4    2    3 2
   5    2    6 1
   6    3    4 1
   7    3   25 1
   8    4    5 1
   9    5   13 1
  10    6    7 ar
  11    6   11 ar
  12    7    8 ar
  13    7   26 1
  14    8    9 ar
  15    8   27 1
  16    9   10 ar
  17    9   28 1
  18   10   11 ar
  19   10   29 1
  20   11   30 1
  21   12   15 2
  22   13   14 am
  23   13   22 2
  24   14   15 1
  25   14   16 1
  26   15   31 1
  27   16   17 ar
  28   16   21 ar
  29   17   18 ar
  30   17   32 1
  31   18   19 ar
  32   18   33 1
  33   19   20 ar
  34   19   23 1
  35   20   21 ar
  36   20   34 1
  37   21   35 1
  38   23   24 1
  39   24   36 1
  40   24   37 1
  41   24   38 1

#	End of record

