#	Name: ASD03092479
#	Creating user name:	WinNT
#	Creation time:	15. 06. 2019 20:32

#	Modifying user name:	WinNT
#	Modification time:	15. 06. 2019 20:32

#	Program:	/corina/corina34_cracker 3.40 0067  02.08.2006

@<TRIPOS>MOLECULE
ASD03092479
  55   58    0    0    0
SMALL
NO_CHARGES


@<TRIPOS>ATOM
   1 O1             0.0396     1.6380    -0.9761 O.3     
   2 N2             0.0119     0.4323    -1.0107 N.2     
   3 C3             1.1944    -0.0923    -0.8813 C.2     
   4 C4             2.1126     1.0483    -0.7408 C.2     
   5 C5             1.2698     2.1304    -0.8146 C.2     
   6 C6             3.5758     1.0337    -0.5638 C.2     
   7 O7             4.1723    -0.0252    -0.5188 O.2     
   8 N8             4.2528     2.1937    -0.4520 N.am    
   9 C9             1.5489    -1.5570    -0.8760 C.3     
  10 C10            5.7071     2.1791    -0.2762 C.3     
  11 S11            7.1718     5.8783    -0.6871 S.3     
  12 C12            6.7014     5.4806     0.9075 C.2     
  13 N13            6.2390     4.2673     0.9517 N.2     
  14 C14            6.2155     3.5944    -0.1782 C.2     
  15 C15            6.6858     4.2785    -1.2422 C.2     
  16 N16            6.7996     6.3291     1.9952 N.3     
  17 C17            7.1857     5.5905     3.2063 C.3     
  18 C18            7.3407     6.5739     4.3695 C.3     
  19 O19            6.1186     7.2963     4.5425 O.3     
  20 C20            5.7131     8.0277     3.3823 C.3     
  21 C21            5.5416     7.0591     2.2092 C.3     
  22 C22            8.5145     4.8717     2.9645 C.3     
  23 C23            7.9962     3.4348    -4.6591 C.ar    
  24 C24            7.9557     3.9200    -3.3699 C.ar    
  25 C25            6.7765     3.7752    -2.6267 C.ar    
  26 C26            5.6861     3.1388    -3.2348 C.ar    
  27 C27            5.8152     2.6841    -4.5292 C.ar    
  28 N28            6.9451     2.8413    -5.1938 N.ar    
  29 C29            4.6508     1.9975    -5.1952 C.3     
  30 C30            9.2558     3.5893    -5.4719 C.3     
  31 H31            1.5473     3.1724    -0.7541 H       
  32 H32            3.7770     3.0383    -0.4880 H       
  33 H33            1.7579    -1.8840    -1.8946 H       
  34 H34            2.4309    -1.7151    -0.2554 H       
  35 H35            0.7142    -2.1314    -0.4741 H       
  36 H36            5.9573     1.6392     0.6371 H       
  37 H37            6.1713     1.6846    -1.1294 H       
  38 H38            6.4144     4.8594     3.4482 H       
  39 H39            7.5710     6.0245     5.2823 H       
  40 H40            8.1485     7.2722     4.1506 H       
  41 H41            4.7662     8.5298     3.5812 H       
  42 H42            6.4735     8.7683     3.1347 H       
  43 H43            5.2881     7.6191     1.3090 H       
  44 H44            4.7440     6.3514     2.4351 H       
  45 H45            9.2905     5.6058     2.7478 H       
  46 H46            8.7885     4.3054     3.8546 H       
  47 H47            8.4112     4.1918     2.1188 H       
  48 H48            8.8195     4.4041    -2.9389 H       
  49 H49            4.7589     3.0065    -2.6971 H       
  50 H50            4.0367     2.7382    -5.7074 H       
  51 H51            5.0223     1.2710    -5.9180 H       
  52 H52            4.0511     1.4865    -4.4420 H       
  53 H53            9.8971     2.7217    -5.3167 H       
  54 H54            8.9991     3.6671    -6.5284 H       
  55 H55            9.7821     4.4909    -5.1586 H       
@<TRIPOS>BOND
   1    1    2 1
   2    1    5 1
   3    2    3 2
   4    3    4 1
   5    3    9 1
   6    4    5 2
   7    4    6 1
   8    5   31 1
   9    6    7 2
  10    6    8 am
  11    8   10 1
  12    8   32 1
  13    9   33 1
  14    9   34 1
  15    9   35 1
  16   10   14 1
  17   10   36 1
  18   10   37 1
  19   11   12 1
  20   11   15 1
  21   12   13 2
  22   12   16 1
  23   13   14 1
  24   14   15 2
  25   15   25 1
  26   16   17 1
  27   16   21 1
  28   17   18 1
  29   17   22 1
  30   17   38 1
  31   18   19 1
  32   18   39 1
  33   18   40 1
  34   19   20 1
  35   20   21 1
  36   20   41 1
  37   20   42 1
  38   21   43 1
  39   21   44 1
  40   22   45 1
  41   22   46 1
  42   22   47 1
  43   23   24 ar
  44   23   28 ar
  45   23   30 1
  46   24   25 ar
  47   24   48 1
  48   25   26 ar
  49   26   27 ar
  50   26   49 1
  51   27   28 ar
  52   27   29 1
  53   29   50 1
  54   29   51 1
  55   29   52 1
  56   30   53 1
  57   30   54 1
  58   30   55 1

#	End of record

