#	Name: ASD06190005
#	Creating user name:	WinNT
#	Creation time:	15. 06. 2019 21:05

#	Modifying user name:	WinNT
#	Modification time:	15. 06. 2019 21:05

#	Program:	/corina/corina34_cracker 3.40 0067  02.08.2006

@<TRIPOS>MOLECULE
ASD06190005
  40   42    0    0    0
SMALL
NO_CHARGES


@<TRIPOS>ATOM
   1 C1            -0.0160     1.3829    -0.0085 C.ar    
   2 C2            -1.0021     1.6904    -0.9360 C.ar    
   3 C3            -2.1874     0.9791    -0.9441 C.ar    
   4 C4            -2.3909    -0.0392    -0.0279 C.ar    
   5 C5            -1.4089    -0.3469     0.8973 C.ar    
   6 C6            -0.2208     0.3571     0.9054 C.ar    
   7 N7             1.1849     2.1014     0.0020 N.am    
   8 C8             1.1667     3.4457    -0.0923 C.2     
   9 N9             2.3159     4.1434     0.0016 N.am    
  10 N10            3.5295     3.4713     0.1973 N.am    
  11 C11            4.6788     4.1691     0.2912 C.2     
  12 S12           -0.3163     4.2670    -0.3315 S.2     
  13 C13            5.9841     3.4461     0.5018 C.3     
  14 O14            4.6624     5.3788     0.2064 O.2     
  15 N15            7.0764     4.4201     0.5697 N.pl3   
  16 Cl16          -3.4217     1.3628    -2.1030 Cl      
  17 Cl17          -3.8804    -0.9307    -0.0396 Cl      
  18 N18            7.5036     4.9860     1.6441 N.2     
  19 N19            8.4705     5.7841     1.3410 N.2     
  20 C20            8.6490     5.7072     0.0147 C.2     
  21 N21            7.7639     4.8405    -0.4359 N.2     
  22 C22            9.6524     6.4490    -0.7894 C.ar    
  23 C23           10.5315     7.3324    -0.1676 C.ar    
  24 C24            9.7219     6.2597    -2.1688 C.ar    
  25 C25           10.6586     6.9535    -2.9122 C.ar    
  26 C26           11.5253     7.8341    -2.2883 C.ar    
  27 C27           11.4630     8.0202    -0.9194 C.ar    
  28 Cl28          10.7482     6.7196    -4.6300 Cl      
  29 Cl29           8.6352     5.1548    -2.9512 Cl      
  30 H30           -0.8436     2.4848    -1.6503 H       
  31 H31           -1.5701    -1.1412     1.6110 H       
  32 H32            0.5449     0.1163     1.6279 H       
  33 H33            2.0303     1.6318     0.0772 H       
  34 H34            2.3028     5.1110    -0.0663 H       
  35 H35            3.5426     2.5038     0.2652 H       
  36 H36            5.9412     2.8827     1.4339 H       
  37 H37            6.1586     2.7619    -0.3287 H       
  38 H38           10.4843     7.4794     0.9013 H       
  39 H39           12.2560     8.3742    -2.8720 H       
  40 H40           12.1415     8.7088    -0.4379 H       
@<TRIPOS>BOND
   1    1    2 ar
   2    1    7 1
   3    1    6 ar
   4    2    3 ar
   5    2   30 1
   6    3    4 ar
   7    3   16 1
   8    4    5 ar
   9    4   17 1
  10    5    6 ar
  11    5   31 1
  12    6   32 1
  13    7    8 am
  14    7   33 1
  15    8    9 am
  16    8   12 2
  17    9   10 1
  18    9   34 1
  19   10   11 am
  20   10   35 1
  21   11   13 1
  22   11   14 2
  23   13   15 1
  24   13   36 1
  25   13   37 1
  26   15   18 1
  27   15   21 1
  28   18   19 2
  29   19   20 1
  30   20   21 2
  31   20   22 1
  32   22   23 ar
  33   22   24 ar
  34   23   27 ar
  35   23   38 1
  36   24   25 ar
  37   24   29 1
  38   25   26 ar
  39   25   28 1
  40   26   27 ar
  41   26   39 1
  42   27   40 1

#	End of record

