#	Name: ASD03930135
#	Creating user name:	WinNT
#	Creation time:	15. 06. 2019 20:47

#	Modifying user name:	WinNT
#	Modification time:	15. 06. 2019 20:47

#	Program:	/corina/corina34_cracker 3.40 0067  02.08.2006

@<TRIPOS>MOLECULE
ASD03930135
  39   40    0    0    0
SMALL
NO_CHARGES


@<TRIPOS>ATOM
   1 C1            -0.0189     1.5391     0.0105 C.3     
   2 C2             0.0021    -0.0041     0.0020 C.3     
   3 C3             1.3498    -0.3138    -0.6831 C.3     
   4 C4             2.2240     0.8895    -0.4002 C.ar    
   5 C5             3.5956     1.0371    -0.4861 C.ar    
   6 C6             4.1887     2.2596    -0.1707 C.ar    
   7 C7             3.3888     3.3313     0.2314 C.ar    
   8 C8             2.0225     3.1727     0.3130 C.ar    
   9 C9             1.4369     1.9555    -0.0012 C.ar    
  10 C10            5.6545     2.4194    -0.2609 C.2     
  11 O11            6.3470     1.4847    -0.6106 O.2     
  12 O12            6.2232     3.6017     0.0447 O.3     
  13 S13           -2.5108    -1.0037    -0.0241 S.o2    
  14 O14           -3.3392    -1.4788    -1.0764 O.2     
  15 O15           -2.0724    -1.8719     1.0120 O.2     
  16 N16           -1.1151    -0.5356    -0.7825 N.am    
  17 C17           -3.1836     0.5300     0.6728 C.3     
  18 C18           -3.4536     1.5274    -0.4556 C.3     
  19 C19           -4.4904     0.2259     1.4082 C.3     
  20 C20            7.6685     3.6863    -0.0664 C.3     
  21 H21           -0.5269     1.9153    -0.8774 H       
  22 H22           -0.5099     1.9057     0.9120 H       
  23 H23           -0.0152    -0.3973     1.0185 H       
  24 H24            1.7938    -1.2127    -0.2554 H       
  25 H25            1.2091    -0.4349    -1.7572 H       
  26 H26            4.2090     0.2046    -0.7977 H       
  27 H27            3.8397     4.2812     0.4779 H       
  28 H28            1.4038     4.0015     0.6240 H       
  29 H29           -1.0373    -0.6134    -1.7463 H       
  30 H30           -2.4646     0.9577     1.3714 H       
  31 H31           -4.1727     1.0997    -1.1543 H       
  32 H32           -3.8579     2.4490    -0.0369 H       
  33 H33           -2.5227     1.7441    -0.9795 H       
  34 H34           -4.2980    -0.4847     2.2120 H       
  35 H35           -4.8946     1.1475     1.8268 H       
  36 H36           -5.2094    -0.2018     0.7095 H       
  37 H37            8.1276     2.9588     0.6029 H       
  38 H38            7.9670     3.4744    -1.0931 H       
  39 H39            7.9959     4.6893     0.2075 H       
@<TRIPOS>BOND
   1    1    2 1
   2    1    9 1
   3    1   21 1
   4    1   22 1
   5    2    3 1
   6    2   16 1
   7    2   23 1
   8    3    4 1
   9    3   24 1
  10    3   25 1
  11    4    5 ar
  12    4    9 ar
  13    5    6 ar
  14    5   26 1
  15    6    7 ar
  16    6   10 1
  17    7    8 ar
  18    7   27 1
  19    8    9 ar
  20    8   28 1
  21   10   11 2
  22   10   12 1
  23   12   20 1
  24   13   14 2
  25   13   15 2
  26   13   16 am
  27   13   17 1
  28   16   29 1
  29   17   18 1
  30   17   19 1
  31   17   30 1
  32   18   31 1
  33   18   32 1
  34   18   33 1
  35   19   34 1
  36   19   35 1
  37   19   36 1
  38   20   37 1
  39   20   38 1
  40   20   39 1

#	End of record

