#	Name: ASD03180043
#	Creating user name:	WinNT
#	Creation time:	15. 06. 2019 20:33

#	Modifying user name:	WinNT
#	Modification time:	15. 06. 2019 20:33

#	Program:	/corina/corina34_cracker 3.40 0067  02.08.2006

@<TRIPOS>MOLECULE
ASD03180043
  69   73    0    0    0
SMALL
NO_CHARGES


@<TRIPOS>ATOM
   1 C1            -0.0187     1.5258     0.0104 C.3     
   2 C2             0.0021    -0.0041     0.0020 C.3     
   3 C3             0.7573    -0.4744    -1.2456 C.3     
   4 C4             2.1341     0.1333    -1.2397 C.2     
   5 C5             2.3815     1.3667    -0.6075 C.2     
   6 C6             1.3961     2.0531    -0.0002 C.2     
   7 O7             1.6484     3.2229     0.6123 O.3     
   8 C8             3.7855     1.9171    -0.6272 C.3     
   9 C9             3.7647     3.4025    -0.3675 C.2     
  10 C10            2.6992     3.9686     0.2283 C.2     
  11 C11            2.6537     5.4573     0.4758 C.3     
  12 C12            4.8780     4.1693    -0.7607 C.2     
  13 C13            4.9230     5.6543    -0.5204 C.3     
  14 C14            4.0710     5.9838     0.7099 C.3     
  15 C15            4.6044     1.2350     0.4382 C.ar    
  16 C16            5.7334     0.5180     0.0876 C.ar    
  17 C17            6.4858    -0.1081     1.0624 C.ar    
  18 C18            6.1077    -0.0170     2.3941 C.ar    
  19 C19            4.9745     0.7030     2.7433 C.ar    
  20 C20            4.2286     1.3321     1.7653 C.ar    
  21 O21            6.8460    -0.6324     3.3549 O.3     
  22 C22            6.3972    -0.4960     4.7047 C.3     
  23 C23            7.3331    -1.2393     5.6228 C.ar    
  24 C24            7.1007    -1.2502     6.9856 C.ar    
  25 C25            7.9590    -1.9318     7.8276 C.ar    
  26 C26            9.0497    -2.6032     7.3069 C.ar    
  27 C27            9.2815    -2.5931     5.9444 C.ar    
  28 C28            8.4205    -1.9148     5.1017 C.ar    
  29 C29            5.9118    -0.5184     7.5531 C.3     
  30 O30            5.8180     3.6233    -1.3026 O.2     
  31 O31            3.0469    -0.4502    -1.7889 O.2     
  32 C32            0.7134    -0.5152     1.2564 C.3     
  33 C33           -1.4316    -0.5372    -0.0337 C.3     
  34 C34            4.0288     7.4995     0.9146 C.3     
  35 C35            4.6714     5.3111     1.9459 C.3     
  36 H36           -0.5468     1.8863    -0.8723 H       
  37 H37           -0.5299     1.8767     0.9069 H       
  38 H38            0.8379    -1.5614    -1.2354 H       
  39 H39            0.2210    -0.1547    -2.1391 H       
  40 H40            4.2344     1.7270    -1.6021 H       
  41 H41            2.2199     5.9561    -0.3909 H       
  42 H42            2.0415     5.6604     1.3545 H       
  43 H43            5.9530     5.9646    -0.3449 H       
  44 H44            4.5256     6.1770    -1.3904 H       
  45 H45            6.0271     0.4471    -0.9493 H       
  46 H46            7.3674    -0.6684     0.7880 H       
  47 H47            4.6781     0.7754     3.7793 H       
  48 H48            3.3490     1.8967     2.0371 H       
  49 H49            6.3824     0.5592     4.9778 H       
  50 H50            5.3930    -0.9094     4.7973 H       
  51 H51            7.7779    -1.9398     8.8922 H       
  52 H52            9.7208    -3.1353     7.9649 H       
  53 H53           10.1337    -3.1173     5.5377 H       
  54 H54            8.5995    -1.9100     4.0367 H       
  55 H55            5.0537    -1.1896     7.5858 H       
  56 H56            6.1436    -0.1757     8.5616 H       
  57 H57            5.6783     0.3395     6.9226 H       
  58 H58            0.1838    -0.1653     2.1425 H       
  59 H59            0.7268    -1.6051     1.2479 H       
  60 H60            1.7365    -0.1395     1.2726 H       
  61 H61           -1.9309    -0.1771    -0.9331 H       
  62 H62           -1.4139    -1.6271    -0.0396 H       
  63 H63           -1.9713    -0.1874     0.8463 H       
  64 H64            3.4087     7.7321     1.7803 H       
  65 H65            5.0396     7.8719     1.0811 H       
  66 H66            3.6081     7.9743     0.0282 H       
  67 H67            4.7068     4.2327     1.7915 H       
  68 H68            5.6809     5.6879     2.1104 H       
  69 H69            4.0543     5.5335     2.8165 H       
@<TRIPOS>BOND
   1    1    2 1
   2    1    6 1
   3    1   36 1
   4    1   37 1
   5    2    3 1
   6    2   32 1
   7    2   33 1
   8    3    4 1
   9    3   38 1
  10    3   39 1
  11    4    5 1
  12    4   31 2
  13    5    8 1
  14    5    6 2
  15    6    7 1
  16    7   10 1
  17    8    9 1
  18    8   15 1
  19    8   40 1
  20    9   12 1
  21    9   10 2
  22   10   11 1
  23   11   14 1
  24   11   41 1
  25   11   42 1
  26   12   13 1
  27   12   30 2
  28   13   14 1
  29   13   43 1
  30   13   44 1
  31   14   34 1
  32   14   35 1
  33   15   16 ar
  34   15   20 ar
  35   16   17 ar
  36   16   45 1
  37   17   18 ar
  38   17   46 1
  39   18   19 ar
  40   18   21 1
  41   19   20 ar
  42   19   47 1
  43   20   48 1
  44   21   22 1
  45   22   23 1
  46   22   49 1
  47   22   50 1
  48   23   24 ar
  49   23   28 ar
  50   24   25 ar
  51   24   29 1
  52   25   26 ar
  53   25   51 1
  54   26   27 ar
  55   26   52 1
  56   27   28 ar
  57   27   53 1
  58   28   54 1
  59   29   55 1
  60   29   56 1
  61   29   57 1
  62   32   58 1
  63   32   59 1
  64   32   60 1
  65   33   61 1
  66   33   62 1
  67   33   63 1
  68   34   64 1
  69   34   65 1
  70   34   66 1
  71   35   67 1
  72   35   68 1
  73   35   69 1

#	End of record

