#	Name: ASD04590161
#	Creating user name:	WinNT
#	Creation time:	15. 06. 2019 20:50

#	Modifying user name:	WinNT
#	Modification time:	15. 06. 2019 20:50

#	Program:	/corina/corina34_cracker 3.40 0067  02.08.2006

@<TRIPOS>MOLECULE
ASD04590161
  54   56    0    0    0
SMALL
NO_CHARGES


@<TRIPOS>ATOM
   1 N1            -0.0153     1.2802     0.0091 N.pl3   
   2 N2             0.0021    -0.0041     0.0020 N.2     
   3 C3             1.2455    -0.4440    -0.0122 C.2     
   4 C4             2.0903     0.6961    -0.0142 C.2     
   5 C5             1.2523     1.7667    -0.0004 C.2     
   6 C6             1.6765    -1.8547    -0.0235 C.2     
   7 N7             0.7571    -2.8402    -0.0200 N.am    
   8 O8             2.8611    -2.1284    -0.0359 O.2     
   9 N9             3.4930     0.7146    -0.0270 N.am    
  10 C10            4.1514     1.8906    -0.0271 C.2     
  11 C11            1.1851    -4.2412    -0.0312 C.3     
  12 O12            3.5296     2.9356    -0.0159 O.2     
  13 C13            0.0894    -5.1159     0.5844 C.3     
  14 C14            0.5160    -6.5839     0.5145 C.3     
  15 N15            0.7411    -6.9635    -0.8861 N.3     
  16 C16            1.8216    -6.1692    -1.4844 C.3     
  17 C17            1.4339    -4.6887    -1.4743 C.3     
  18 C18            1.0174    -8.4014    -1.0040 C.3     
  19 C19           -0.1745    -9.1956    -0.4659 C.3     
  20 C20            1.2460    -8.7580    -2.4742 C.3     
  21 C21            2.2686    -8.7484    -0.1945 C.3     
  22 C22            5.6264     1.9101    -0.0406 C.ar    
  23 C23            6.3411     1.9132     1.1622 C.ar    
  24 C24            7.7230     1.9315     1.1402 C.ar    
  25 C25            8.3993     1.9473    -0.0661 C.ar    
  26 C26            7.7007     1.9449    -1.2598 C.ar    
  27 C27            6.3188     1.9199    -1.2564 C.ar    
  28 F28            5.6824     1.8987     2.3416 F       
  29 F29            5.6383     1.9171    -2.4235 F       
  30 H30           -0.8184     1.8242     0.0160 H       
  31 H31            1.5405     2.8076     0.0024 H       
  32 H32           -0.1879    -2.6218    -0.0102 H       
  33 H33            3.9890    -0.1189    -0.0359 H       
  34 H34            2.1030    -4.3463     0.5472 H       
  35 H35           -0.0625    -4.8302     1.6252 H       
  36 H36           -0.8392    -4.9800     0.0299 H       
  37 H37            1.4372    -6.7218     1.0807 H       
  38 H38           -0.2683    -7.2106     0.9391 H       
  39 H39            2.7366    -6.3090    -0.9089 H       
  40 H40            1.9855    -6.4946    -2.5117 H       
  41 H41            0.5265    -4.5461    -2.0611 H       
  42 H42            2.2427    -4.0978    -1.9042 H       
  43 H43           -1.0659    -8.9485    -1.0426 H       
  44 H44            0.0305   -10.2626    -0.5534 H       
  45 H45           -0.3374    -8.9416     0.5815 H       
  46 H46            2.0952    -8.1922    -2.8575 H       
  47 H47            1.4511    -9.8250    -2.5616 H       
  48 H48            0.3547    -8.5109    -3.0508 H       
  49 H49            2.1057    -8.4943     0.8529 H       
  50 H50            2.4736    -9.8153    -0.2820 H       
  51 H51            3.1177    -8.1826    -0.5778 H       
  52 H52            8.2762     1.9339     2.0678 H       
  53 H53            9.4791     1.9620    -0.0760 H       
  54 H54            8.2367     1.9580    -2.1973 H       
@<TRIPOS>BOND
   1    1    2 1
   2    1    5 1
   3    1   30 1
   4    2    3 2
   5    3    4 1
   6    3    6 1
   7    4    5 2
   8    4    9 1
   9    5   31 1
  10    6    7 am
  11    6    8 2
  12    7   11 1
  13    7   32 1
  14    9   10 am
  15    9   33 1
  16   10   12 2
  17   10   22 1
  18   11   13 1
  19   11   17 1
  20   11   34 1
  21   13   14 1
  22   13   35 1
  23   13   36 1
  24   14   15 1
  25   14   37 1
  26   14   38 1
  27   15   16 1
  28   15   18 1
  29   16   17 1
  30   16   39 1
  31   16   40 1
  32   17   41 1
  33   17   42 1
  34   18   19 1
  35   18   20 1
  36   18   21 1
  37   19   43 1
  38   19   44 1
  39   19   45 1
  40   20   46 1
  41   20   47 1
  42   20   48 1
  43   21   49 1
  44   21   50 1
  45   21   51 1
  46   22   23 ar
  47   22   27 ar
  48   23   24 ar
  49   23   28 1
  50   24   25 ar
  51   24   52 1
  52   25   26 ar
  53   25   53 1
  54   26   27 ar
  55   26   54 1
  56   27   29 1

#	End of record

