#	Name: ASD01820156
#	Creating user name:	WinNT
#	Creation time:	15. 06. 2019 19:36

#	Modifying user name:	WinNT
#	Modification time:	15. 06. 2019 19:36

#	Program:	/corina/corina34_cracker 3.40 0067  02.08.2006

@<TRIPOS>MOLECULE
ASD01820156
 120  134    0    0    0
SMALL
NO_CHARGES


@<TRIPOS>ATOM
   1 N1             0.0019     1.4721    -0.3400 N.3     
   2 C2             0.0186     0.0607    -0.4228 C.3     
   3 C3             1.0818    -0.7649     0.2892 C.3     
   4 C4             2.3234     0.0492     0.6655 C.3     
   5 N5             3.1488     0.1916    -0.5297 N.3     
   6 C6             2.7815     0.9179    -1.6825 C.3     
   7 C7             1.9455     2.1850    -1.5913 C.3     
   8 C8             1.1898     2.3193    -0.2636 C.3     
   9 C9             3.2851    -0.8310     1.5116 C.3     
  10 C10            3.9420    -1.6891     0.5012 C.ar    
  11 C11            3.8275    -1.0032    -0.7288 C.ar    
  12 C12            4.5760    -2.9106     0.5900 C.ar    
  13 C13            5.1034    -3.4520    -0.5763 C.ar    
  14 C14            4.9945    -2.7892    -1.7820 C.ar    
  15 C15            4.3592    -1.5607    -1.8879 C.ar    
  16 C16            2.9040     3.3650    -1.7701 C.3     
  17 C17            2.1575     4.6919    -1.8214 C.3     
  18 C18            1.4248     4.8641    -0.5152 C.3     
  19 C19            0.4907     3.7042    -0.2157 C.3     
  20 C20           -0.6872     3.5236    -1.0890 C.ar    
  21 C21           -0.9528     2.1366    -1.0970 C.ar    
  22 C22           -1.4697     4.4107    -1.8007 C.ar    
  23 C23           -2.5456     3.8949    -2.5125 C.ar    
  24 C24           -2.8225     2.5427    -2.5115 C.ar    
  25 C25           -2.0387     1.6374    -1.8115 C.ar    
  26 C26            0.1029     4.0453     1.2465 C.3     
  27 C27            3.8046     3.3617    -0.5516 C.2     
  28 N28            2.2945     4.9773     0.6630 N.4     
  29 C29            3.4656     4.1138     0.6801 C.3     
  30 C30            1.4613     4.5213     1.8258 C.3     
  31 H31            0.8256     5.7724    -0.5738 H       
  32 H32            1.8346     2.2344     0.6013 H       
  33 H33            1.2201     2.2024    -2.4158 H       
  34 H34            3.4939     3.2415    -2.6764 H       
  35 O35            3.9567     1.1589    -2.4896 O.3     
  36 C36            4.8460     2.5723    -0.6519 C.2     
  37 C37            5.0646     1.7285    -1.8384 C.3     
  38 H38            2.1756     0.2085    -2.2878 H       
  39 H39            2.0892     0.9358     1.2449 H       
  40 O40           -1.2923    -0.4435    -0.0692 O.3     
  41 C41            2.6096    -1.5281     2.6765 C.3     
  42 C42            0.4403    -1.3475     1.5497 C.3     
  43 C43            1.3877    -2.3078     2.2576 C.3     
  44 H44            1.3832    -1.6005    -0.3590 H       
  45 C45            0.1607    -0.1788     2.4709 C.2     
  46 C46            1.0842     0.2034     3.5647 C.3     
  47 N47            2.3606    -0.4826     3.6743 N.4     
  48 C48            4.2757     0.0943     2.2605 C.3     
  49 C49            3.4230     0.5504     3.4719 C.3     
  50 H50            3.3265    -2.2300     3.1072 H       
  51 H51           -0.4858    -1.8636     1.3029 H       
  52 C52           -0.9508     0.4636     2.2134 C.2     
  53 C53           -1.8502     0.0811     1.1128 C.3     
  54 H54            0.1255    -0.1716    -1.4994 H       
  55 C55            2.6938     6.3749     0.8617 C.3     
  56 C56            2.4925    -1.0556     5.0258 C.3     
  57 C57            1.4640     7.2425     0.9397 C.ar    
  58 C58            0.8482     7.4588     2.1585 C.ar    
  59 C59           -0.2793     8.2537     2.2326 C.ar    
  60 C60           -0.7934     8.8351     1.0827 C.ar    
  61 C61           -0.1736     8.6165    -0.1390 C.ar    
  62 C62            0.9568     7.8254    -0.2070 C.ar    
  63 O63           -1.9027     9.6171     1.1530 O.3     
  64 C64            2.2371     0.0169     6.0532 C.ar    
  65 C65            0.9540     0.2331     6.5209 C.ar    
  66 C66            0.7173     1.2157     7.4626 C.ar    
  67 C67            1.7683     1.9858     7.9392 C.ar    
  68 C68            3.0547     1.7669     7.4683 C.ar    
  69 C69            3.2871     0.7793     6.5307 C.ar    
  70 O70            1.5379     2.9533     8.8653 O.3     
  71 C71           -2.3761    10.1830    -0.0709 C.3     
  72 C72            2.6672     3.7072     9.3106 C.3     
  73 H73            4.6597    -3.4227     1.5373 H       
  74 H74            5.6108    -4.4049    -0.5349 H       
  75 H75            5.4194    -3.2374    -2.6674 H       
  76 H76            4.2796    -1.0570    -2.8395 H       
  77 H77            2.8632     5.5102    -1.9646 H       
  78 H78            1.4413     4.6799    -2.6444 H       
  79 H79           -1.2501     5.4684    -1.7986 H       
  80 H80           -3.1792     4.5669    -3.0722 H       
  81 H81           -3.6740     2.1803    -3.0675 H       
  82 H82           -2.2644     0.5818    -1.8238 H       
  83 H83           -0.6290     4.8502     1.2715 H       
  84 H84           -0.2537     3.1614     1.7689 H       
  85 H85            3.3703     3.3956     1.4899 H       
  86 H86            4.3263     4.7452     0.9207 H       
  87 H87            1.2919     5.3625     2.5019 H       
  88 H88            1.9437     3.7113     2.3602 H       
  89 H89            5.5616     2.5309     0.1508 H       
  90 H90            5.7289     0.9167    -1.5436 H       
  91 H91            5.6036     2.3305    -2.5698 H       
  92 H92            1.6784    -3.1069     1.5752 H       
  93 H93            0.8994    -2.7332     3.1335 H       
  94 H94            1.2666     1.2736     3.4825 H       
  95 H95            0.5511     0.0511     4.5074 H       
  96 H96            5.1476    -0.4670     2.5932 H       
  97 H97            4.5606     0.9416     1.6430 H       
  98 H98            2.9875     1.5257     3.2722 H       
  99 H99            4.0563     0.6065     4.3603 H       
 100 H100          -1.2200     1.3097     2.8242 H       
 101 H101          -2.4350     0.9593     0.8431 H       
 102 H102          -2.5490    -0.6597     1.5039 H       
 103 H103           3.2598     6.4627     1.7891 H       
 104 H104           3.3140     6.6980     0.0256 H       
 105 H105           1.7674    -1.8596     5.1519 H       
 106 H106           3.4998    -1.4510     5.1561 H       
 107 H107           1.2486     7.0057     3.0534 H       
 108 H108          -0.7602     8.4221     3.1849 H       
 109 H109          -0.5720     9.0680    -1.0356 H       
 110 H110           1.4397     7.6549    -1.1578 H       
 111 H111           0.1361    -0.3664     6.1493 H       
 112 H112          -0.2852     1.3844     7.8274 H       
 113 H113           3.8746     2.3650     7.8377 H       
 114 H114           4.2884     0.6085     6.1638 H       
 115 H115          -1.5998    10.8140    -0.5036 H       
 116 H116          -2.6251     9.3833    -0.7685 H       
 117 H117          -3.2644    10.7832     0.1260 H       
 118 H118           3.3965     3.0357     9.7637 H       
 119 H119           3.1214     4.2172     8.4611 H       
 120 H120           2.3450     4.4437    10.0467 H       
@<TRIPOS>BOND
   1    1    2 1
   2    1    8 1
   3    1   21 1
   4    2    3 1
   5    2   40 1
   6    2   54 1
   7    3    4 1
   8    3   44 1
   9    3   42 1
  10    4    5 1
  11    4    9 1
  12    4   39 1
  13    5    6 1
  14    5   11 1
  15    6    7 1
  16    6   35 1
  17    6   38 1
  18    7    8 1
  19    7   33 1
  20    7   16 1
  21    8   19 1
  22    8   32 1
  23    9   10 1
  24    9   41 1
  25    9   48 1
  26   10   11 ar
  27   10   12 ar
  28   11   15 ar
  29   12   13 ar
  30   12   73 1
  31   13   14 ar
  32   13   74 1
  33   14   15 ar
  34   14   75 1
  35   15   76 1
  36   16   17 1
  37   16   27 1
  38   16   34 1
  39   17   18 1
  40   17   77 1
  41   17   78 1
  42   18   19 1
  43   18   28 1
  44   18   31 1
  45   19   20 1
  46   19   26 1
  47   20   21 ar
  48   20   22 ar
  49   21   25 ar
  50   22   23 ar
  51   22   79 1
  52   23   24 ar
  53   23   80 1
  54   24   25 ar
  55   24   81 1
  56   25   82 1
  57   26   30 1
  58   26   83 1
  59   26   84 1
  60   27   36 2
  61   27   29 1
  62   28   29 1
  63   28   55 1
  64   28   30 1
  65   29   85 1
  66   29   86 1
  67   30   87 1
  68   30   88 1
  69   35   37 1
  70   36   37 1
  71   36   89 1
  72   37   90 1
  73   37   91 1
  74   40   53 1
  75   41   47 1
  76   41   50 1
  77   41   43 1
  78   42   43 1
  79   42   45 1
  80   42   51 1
  81   43   92 1
  82   43   93 1
  83   45   46 1
  84   45   52 2
  85   46   47 1
  86   46   94 1
  87   46   95 1
  88   47   56 1
  89   47   49 1
  90   48   49 1
  91   48   96 1
  92   48   97 1
  93   49   98 1
  94   49   99 1
  95   52   53 1
  96   52  100 1
  97   53  101 1
  98   53  102 1
  99   55   57 1
 100   55  103 1
 101   55  104 1
 102   56   64 1
 103   56  105 1
 104   56  106 1
 105   57   58 ar
 106   57   62 ar
 107   58   59 ar
 108   58  107 1
 109   59   60 ar
 110   59  108 1
 111   60   61 ar
 112   60   63 1
 113   61   62 ar
 114   61  109 1
 115   62  110 1
 116   63   71 1
 117   64   65 ar
 118   64   69 ar
 119   65   66 ar
 120   65  111 1
 121   66   67 ar
 122   66  112 1
 123   67   68 ar
 124   67   70 1
 125   68   69 ar
 126   68  113 1
 127   69  114 1
 128   70   72 1
 129   71  115 1
 130   71  116 1
 131   71  117 1
 132   72  118 1
 133   72  119 1
 134   72  120 1

#	End of record

