#	Name: ASD01200392
#	Creating user name:	WinNT
#	Creation time:	15. 06. 2019 19:09

#	Modifying user name:	WinNT
#	Modification time:	15. 06. 2019 19:09

#	Program:	/corina/corina34_cracker 3.40 0067  02.08.2006

@<TRIPOS>MOLECULE
ASD01200392
  67   69    0    0    0
SMALL
NO_CHARGES


@<TRIPOS>ATOM
   1 C1            -0.2696     1.4346     0.2405 C.2     
   2 C2            -0.2092    -0.0707     0.2044 C.3     
   3 C3             1.2517    -0.5212     0.1427 C.3     
   4 O4             0.7510     2.0809     0.2191 O.2     
   5 O5            -1.4575     2.0576     0.2909 O.3     
   6 C6             2.5030    -2.6100     0.0514 C.2     
   7 C7             2.5622    -4.0868     0.0159 C.ar    
   8 C8             3.7956    -4.7376    -0.0423 C.ar    
   9 C9             3.8439    -6.1159    -0.0746 C.ar    
  10 C10            2.6733    -6.8530    -0.0499 C.ar    
  11 C11            1.4474    -6.2141     0.0078 C.ar    
  12 C12            1.3853    -4.8365     0.0464 C.ar    
  13 O13            3.5298    -1.9598     0.0298 O.2     
  14 N14            1.3104    -1.9846     0.1076 N.am    
  15 C15            2.7337    -8.3584    -0.0865 C.3     
  16 C16            2.5544    -8.9105     1.3291 C.3     
  17 C17            2.7397   -10.4292     1.3114 C.3     
  18 C18            2.5604   -10.9813     2.7270 C.3     
  19 O19            1.6915    -8.8566    -0.9276 O.3     
  20 C20            1.9543    -9.9902    -1.6303 C.ar    
  21 C21            0.9616   -10.5708    -2.4069 C.ar    
  22 C22            1.2281   -11.7220    -3.1206 C.ar    
  23 C23            2.4898   -12.2987    -3.0617 C.ar    
  24 C24            3.4826   -11.7173    -2.2851 C.ar    
  25 C25            3.2165   -10.5631    -1.5753 C.ar    
  26 N26            2.7609   -13.4689    -3.7866 N.pl3   
  27 N27            1.8584   -14.1587    -4.6063 N.2     
  28 C28            2.4751   -15.1973    -5.1107 C.2     
  29 C29            3.7886   -15.2029    -4.6293 C.2     
  30 C30            3.9412   -14.1273    -3.8221 C.2     
  31 C31            4.8484   -16.2230    -4.9569 C.3     
  32 F32            4.3199   -17.1812    -5.8285 F       
  33 F33            5.9352   -15.5870    -5.5666 F       
  34 F34            5.2741   -16.8477    -3.7797 F       
  35 C35           -0.4077    -9.9447    -2.4707 C.3     
  36 C36           -1.4398     3.5091     0.3234 C.3     
  37 C37           -2.8753     4.0356     0.3792 C.3     
  38 H38           -0.6763    -0.4748     1.1026 H       
  39 H39           -0.7391    -0.4346    -0.6758 H       
  40 H40            1.7188    -0.1172    -0.7555 H       
  41 H41            1.7816    -0.1573     1.0229 H       
  42 H42            4.7101    -4.1634    -0.0624 H       
  43 H43            4.7976    -6.6207    -0.1197 H       
  44 H44            0.5373    -6.7953     0.0268 H       
  45 H45            0.4279    -4.3391     0.0960 H       
  46 H46            0.4910    -2.5034     0.1248 H       
  47 H47            3.7001    -8.6738    -0.4798 H       
  48 H48            3.2954    -8.4618     1.9907 H       
  49 H49            1.5537    -8.6707     1.6886 H       
  50 H50            1.9987   -10.8779     0.6499 H       
  51 H51            3.7404   -10.6689     0.9519 H       
  52 H52            2.6924   -12.0632     2.7144 H       
  53 H53            3.3014   -10.5325     3.3886 H       
  54 H54            1.5598   -10.7415     3.0865 H       
  55 H55            0.4552   -12.1741    -3.7245 H       
  56 H56            4.4640   -12.1658    -2.2387 H       
  57 H57            3.9901   -10.1084    -0.9743 H       
  58 H58            2.0440   -15.9248    -5.7824 H       
  59 H59            4.8431   -13.8468    -3.2983 H       
  60 H60           -0.4409    -9.2263    -3.2898 H       
  61 H61           -1.1546   -10.7208    -2.6376 H       
  62 H62           -0.6179    -9.4342    -1.5309 H       
  63 H63           -0.8947     3.8462     1.2051 H       
  64 H64           -0.9489     3.8867    -0.5736 H       
  65 H65           -3.4204     3.6986    -0.5025 H       
  66 H66           -3.3661     3.6581     1.2762 H       
  67 H67           -2.8619     5.1253     0.4036 H       
@<TRIPOS>BOND
   1    1    2 1
   2    1    4 2
   3    1    5 1
   4    2    3 1
   5    2   38 1
   6    2   39 1
   7    3   14 1
   8    3   40 1
   9    3   41 1
  10    5   36 1
  11    6    7 1
  12    6   13 2
  13    6   14 am
  14    7    8 ar
  15    7   12 ar
  16    8    9 ar
  17    8   42 1
  18    9   10 ar
  19    9   43 1
  20   10   11 ar
  21   10   15 1
  22   11   12 ar
  23   11   44 1
  24   12   45 1
  25   14   46 1
  26   15   16 1
  27   15   19 1
  28   15   47 1
  29   16   17 1
  30   16   48 1
  31   16   49 1
  32   17   18 1
  33   17   50 1
  34   17   51 1
  35   18   52 1
  36   18   53 1
  37   18   54 1
  38   19   20 1
  39   20   21 ar
  40   20   25 ar
  41   21   22 ar
  42   21   35 1
  43   22   23 ar
  44   22   55 1
  45   23   24 ar
  46   23   26 1
  47   24   25 ar
  48   24   56 1
  49   25   57 1
  50   26   27 1
  51   26   30 1
  52   27   28 2
  53   28   29 1
  54   28   58 1
  55   29   30 2
  56   29   31 1
  57   30   59 1
  58   31   32 1
  59   31   33 1
  60   31   34 1
  61   35   60 1
  62   35   61 1
  63   35   62 1
  64   36   37 1
  65   36   63 1
  66   36   64 1
  67   37   65 1
  68   37   66 1
  69   37   67 1

#	End of record

