#	Name: ASD03451011
#	Creating user name:	WinNT
#	Creation time:	15. 06. 2019 20:42

#	Modifying user name:	WinNT
#	Modification time:	15. 06. 2019 20:42

#	Program:	/corina/corina34_cracker 3.40 0067  02.08.2006

@<TRIPOS>MOLECULE
ASD03451011
  41   44    0    0    0
SMALL
NO_CHARGES


@<TRIPOS>ATOM
   1 C1             0.0869     1.5450    -0.1010 C.ar    
   2 C2             0.1175     0.1696    -0.2552 C.ar    
   3 C3             1.3365    -0.4807    -0.2751 C.ar    
   4 C4             2.5114     0.2757    -0.1380 C.ar    
   5 C5             2.4062     1.6645     0.0081 C.ar    
   6 N6             1.1965     2.2386     0.0234 N.ar    
   7 C7             3.7953    -0.4389    -0.1503 C.2     
   8 N8             4.7902    -0.1548     0.6200 N.2     
   9 C9             4.7178     0.9464     1.5805 C.3     
  10 C10            4.5346     2.2353     0.8286 C.2     
  11 N11            3.4818     2.4826     0.1325 N.2     
  12 C12            3.9573    -1.5574    -1.1084 C.ar    
  13 C13            3.1683    -1.6153    -2.2569 C.ar    
  14 C14            3.3237    -2.6595    -3.1454 C.ar    
  15 C15            4.2596    -3.6480    -2.8985 C.ar    
  16 C16            5.0449    -3.5963    -1.7607 C.ar    
  17 C17            4.9033    -2.5535    -0.8681 C.ar    
  18 C18            3.5489     0.7320     2.5072 C.2     
  19 S19            2.5618     2.0088     3.2065 S.3     
  20 C20            1.5714     0.8235     4.0476 C.2     
  21 C21            2.0128    -0.4047     3.7721 C.2     
  22 C22            3.1010    -0.4554     2.9180 C.2     
  23 O23            1.1096     3.6433     0.1785 O.3     
  24 N24            5.5206     3.1768     0.8875 N.pl3   
  25 C25            5.3692     4.4421     0.1648 C.3     
  26 H26           -0.8639     2.0570    -0.0871 H       
  27 H27           -0.8011    -0.3889    -0.3585 H       
  28 H28            1.3847    -1.5531    -0.3938 H       
  29 H29            5.6412     0.9886     2.1581 H       
  30 H30            2.4368    -0.8446    -2.4504 H       
  31 H31            2.7133    -2.7054    -4.0352 H       
  32 H32            4.3774    -4.4635    -3.5967 H       
  33 H33            5.7733    -4.3712    -1.5729 H       
  34 H34            5.5169    -2.5142     0.0198 H       
  35 H35            0.7341     1.0547     4.6894 H       
  36 H36            1.5536    -1.2924     4.1812 H       
  37 H37            3.5572    -1.3856     2.6130 H       
  38 H38            6.3217     3.0083     1.4079 H       
  39 H39            5.2604     4.2411    -0.9009 H       
  40 H40            4.4843     4.9645     0.5282 H       
  41 H41            6.2504     5.0622     0.3295 H       
@<TRIPOS>BOND
   1    1    2 ar
   2    1    6 ar
   3    1   26 1
   4    2    3 ar
   5    2   27 1
   6    3    4 ar
   7    3   28 1
   8    4    5 ar
   9    4    7 1
  10    5    6 ar
  11    5   11 1
  12    6   23 1
  13    7    8 2
  14    7   12 1
  15    8    9 1
  16    9   10 1
  17    9   18 1
  18    9   29 1
  19   10   11 2
  20   10   24 1
  21   12   13 ar
  22   12   17 ar
  23   13   14 ar
  24   13   30 1
  25   14   15 ar
  26   14   31 1
  27   15   16 ar
  28   15   32 1
  29   16   17 ar
  30   16   33 1
  31   17   34 1
  32   18   19 1
  33   18   22 2
  34   19   20 1
  35   20   21 2
  36   20   35 1
  37   21   22 1
  38   21   36 1
  39   22   37 1
  40   24   25 1
  41   24   38 1
  42   25   39 1
  43   25   40 1
  44   25   41 1

#	End of record

