#	Name: ASD02500968
#	Creating user name:	WinNT
#	Creation time:	15. 06. 2019 20:23

#	Modifying user name:	WinNT
#	Modification time:	15. 06. 2019 20:23

#	Program:	/corina/corina34_cracker 3.40 0067  02.08.2006

@<TRIPOS>MOLECULE
ASD02500968
  24   25    0    0    0
SMALL
NO_CHARGES


@<TRIPOS>ATOM
   1 N1            -0.0168     1.3855     0.0097 N.pl3   
   2 C2             0.0021    -0.0041     0.0020 C.2     
   3 C3             1.3271    -0.3998    -0.0128 C.2     
   4 C4             2.1271     0.7563    -0.0142 C.2     
   5 C5             1.2845     1.8439    -0.0003 C.2     
   6 C6            -0.8892    -1.0817     0.0043 C.2     
   7 C7            -0.3338    -2.2878    -0.0077 C.2     
   8 S8             1.4172    -2.1577    -0.0231 S.3     
   9 C9             1.6979     3.2467     0.0025 C.2     
  10 O10            2.8804     3.5325    -0.0076 O.2     
  11 O11            0.7677     4.2242     0.0164 O.3     
  12 N12            3.6066     0.7961    -0.0274 N.pl3   
  13 O13            4.2059     0.8178    -1.0875 O.2     
  14 O14            4.2249     0.8072     1.0220 O.2     
  15 C15            1.2427     5.5719     0.0184 C.3     
  16 C16            0.0519     6.5324     0.0347 C.3     
  17 H17           -0.8122     1.9406     0.0166 H       
  18 H18           -1.9601    -0.9420     0.0156 H       
  19 H19           -0.8822    -3.2182    -0.0073 H       
  20 H20            1.8568     5.7394     0.9033 H       
  21 H21            1.8394     5.7481    -0.8766 H       
  22 H22           -0.5622     6.3649    -0.8501 H       
  23 H23           -0.5448     6.3562     0.9297 H       
  24 H24            0.4143     7.5604     0.0362 H       
@<TRIPOS>BOND
   1    1    2 1
   2    1    5 1
   3    1   17 1
   4    2    3 2
   5    2    6 1
   6    3    4 1
   7    3    8 1
   8    4    5 2
   9    4   12 1
  10    5    9 1
  11    6    7 2
  12    6   18 1
  13    7    8 1
  14    7   19 1
  15    9   10 2
  16    9   11 1
  17   11   15 1
  18   12   13 2
  19   12   14 2
  20   15   16 1
  21   15   20 1
  22   15   21 1
  23   16   22 1
  24   16   23 1
  25   16   24 1

#	End of record

