#	Name: ASD03240797
#	Creating user name:	WinNT
#	Creation time:	15. 06. 2019 20:35

#	Modifying user name:	WinNT
#	Modification time:	15. 06. 2019 20:35

#	Program:	/corina/corina34_cracker 3.40 0067  02.08.2006

@<TRIPOS>MOLECULE
ASD03240797
  62   68    0    0    0
SMALL
NO_CHARGES


@<TRIPOS>ATOM
   1 C1            -0.0470     1.2460     0.1175 C.3     
   2 C2             0.1513    -0.2777     0.0552 C.3     
   3 C3             1.5491    -0.0412     0.6511 C.3     
   4 C4             1.4840     1.3693     0.0418 C.3     
   5 O5            -0.7216     1.7825    -1.0222 O.3     
   6 C6             2.6191    -0.9120     0.0447 C.ar    
   7 C7             3.7104    -1.2927     0.8050 C.ar    
   8 C8             4.6937    -2.0895     0.2554 C.ar    
   9 C9             4.5855    -2.5116    -1.0697 C.ar    
  10 C10            3.4825    -2.1247    -1.8311 C.ar    
  11 C11            2.5033    -1.3320    -1.2684 C.ar    
  12 C12           10.1781    -4.5134    -1.9776 C.2     
  13 N13            9.9137    -5.4772    -2.8772 N.2     
  14 C14            8.6978    -5.7269    -3.2896 C.2     
  15 C15            7.5905    -4.9356    -2.7568 C.ar    
  16 C16            7.8742    -3.9251    -1.8132 C.ar    
  17 N17            9.1902    -3.7339    -1.4378 N.pl3   
  18 C18            6.2692    -5.1553    -3.1591 C.ar    
  19 C19            5.2769    -4.3548    -2.6019 C.ar    
  20 C20            5.6374    -3.3664    -1.6660 C.ar    
  21 N21            6.9007    -3.1875    -1.3091 N.ar    
  22 N22            9.7905    -2.8370    -0.5459 N.2     
  23 C23           11.0842    -3.0524    -0.5360 C.2     
  24 C24           11.3751    -4.0863    -1.4179 C.2     
  25 C25            3.8577    -4.5398    -2.9892 C.ar    
  26 C26            3.5009    -4.5909    -4.3358 C.ar    
  27 C27            2.1785    -4.7637    -4.6903 C.ar    
  28 C28            1.2077    -4.8857    -3.7124 C.ar    
  29 C29            1.5559    -4.8358    -2.3746 C.ar    
  30 C30            2.8759    -4.6691    -2.0082 C.ar    
  31 C31           12.0919    -2.2975     0.2921 C.3     
  32 Br32          13.0920    -4.7876    -1.7870 Br      
  33 C33           -0.6363     1.7336     1.4426 C.3     
  34 C34           -0.7319     3.2452     1.6595 C.3     
  35 C35           -1.9987     2.4284     1.3967 C.3     
  36 N36            1.5713    -0.0472     2.1199 N.3     
  37 H37           -0.5163    -0.8323     0.7146 H       
  38 H38            0.1708    -0.6744    -0.9599 H       
  39 H39            1.8678     1.4229    -0.9770 H       
  40 H40            1.8922     2.1444     0.6903 H       
  41 H41           -0.3465     1.5035    -1.8687 H       
  42 H42            3.7930    -0.9653     1.8309 H       
  43 H43            5.5454    -2.3855     0.8497 H       
  44 H44            3.3934    -2.4480    -2.8577 H       
  45 H45            1.6469    -1.0351    -1.8556 H       
  46 H46            8.5145    -6.5071    -4.0135 H       
  47 H47            6.0268    -5.9217    -3.8803 H       
  48 H48            4.2579    -4.4950    -5.1001 H       
  49 H49            1.9009    -4.8035    -5.7333 H       
  50 H50            0.1739    -5.0201    -3.9946 H       
  51 H51            0.7938    -4.9316    -1.6154 H       
  52 H52            3.1472    -4.6347    -0.9634 H       
  53 H53           12.2164    -2.7938     1.2545 H       
  54 H54           13.0479    -2.2743    -0.2311 H       
  55 H55           11.7404    -1.2781     0.4518 H       
  56 H56           -0.4163     1.1134     2.3115 H       
  57 H57           -0.5752     3.6193     2.6712 H       
  58 H58           -0.3749     3.8922     0.8582 H       
  59 H59           -2.4751     2.5381     0.4225 H       
  60 H60           -2.6754     2.2653     2.2355 H       
  61 H61            2.5187    -0.0574     2.4672 H       
  62 H62            1.0581     0.7376     2.4925 H       
@<TRIPOS>BOND
   1    1    2 1
   2    1    4 1
   3    1    5 1
   4    1   33 1
   5    2    3 1
   6    2   37 1
   7    2   38 1
   8    3    4 1
   9    3    6 1
  10    3   36 1
  11    4   39 1
  12    4   40 1
  13    5   41 1
  14    6    7 ar
  15    6   11 ar
  16    7    8 ar
  17    7   42 1
  18    8    9 ar
  19    8   43 1
  20    9   10 ar
  21    9   20 1
  22   10   11 ar
  23   10   44 1
  24   11   45 1
  25   12   13 1
  26   12   17 1
  27   12   24 2
  28   13   14 2
  29   14   15 1
  30   14   46 1
  31   15   16 ar
  32   15   18 ar
  33   16   17 1
  34   16   21 ar
  35   17   22 1
  36   18   19 ar
  37   18   47 1
  38   19   20 ar
  39   19   25 1
  40   20   21 ar
  41   22   23 2
  42   23   24 1
  43   23   31 1
  44   24   32 1
  45   25   26 ar
  46   25   30 ar
  47   26   27 ar
  48   26   48 1
  49   27   28 ar
  50   27   49 1
  51   28   29 ar
  52   28   50 1
  53   29   30 ar
  54   29   51 1
  55   30   52 1
  56   31   53 1
  57   31   54 1
  58   31   55 1
  59   33   34 1
  60   33   35 1
  61   33   56 1
  62   34   35 1
  63   34   57 1
  64   34   58 1
  65   35   59 1
  66   35   60 1
  67   36   61 1
  68   36   62 1

#	End of record

