#	Name: ASD02560464
#	Creating user name:	WinNT
#	Creation time:	15. 06. 2019 20:25

#	Modifying user name:	WinNT
#	Modification time:	15. 06. 2019 20:25

#	Program:	/corina/corina34_cracker 3.40 0067  02.08.2006

@<TRIPOS>MOLECULE
ASD02560464
  49   52    0    0    0
SMALL
NO_CHARGES


@<TRIPOS>ATOM
   1 C1            -0.0292     1.4165    -0.0472 C.2     
   2 C2            -0.0048     0.0112     0.0041 C.2     
   3 C3            -1.1560    -0.6902     0.0182 C.2     
   4 N4            -2.3633    -0.0471    -0.0171 N.pl3   
   5 C5            -2.4182     1.3269    -0.0672 C.2     
   6 C6            -1.2205     2.0709    -0.0771 C.2     
   7 C7            -3.6547    -0.4993    -0.0131 C.2     
   8 C8            -4.4597     0.5920    -0.0601 C.2     
   9 N9            -3.6916     1.6869    -0.0922 N.2     
  10 C10           -5.9665     0.5737    -0.0742 C.3     
  11 N11           -4.0678    -1.8367     0.0308 N.3     
  12 C12           -2.9223    -2.7462    -0.1058 C.3     
  13 C13           -6.4972     1.3329     1.1435 C.3     
  14 C14           -2.2901    -3.0334     1.2787 C.3     
  15 C15           -6.4727     1.2435    -1.3533 C.3     
  16 C16           -8.0025     1.2249    -1.3676 C.3     
  17 C17           -8.5332     1.9841    -0.1499 C.3     
  18 C18           -8.0270     1.3143     1.1291 C.3     
  19 C19           -3.3881    -4.1301    -0.6034 C.3     
  20 C20           -2.5302    -5.1737     0.1332 C.3     
  21 C21           -1.5730    -4.3876     1.0527 C.3     
  22 C22            1.2613     2.1947    -0.0627 C.3     
  23 H23            0.9413    -0.5088     0.0321 H       
  24 H24           -1.1251    -1.7691     0.0574 H       
  25 H25           -1.2491     3.1498    -0.1159 H       
  26 H26           -6.3177    -0.4577    -0.0407 H       
  27 H27           -4.5829    -2.0284     0.8769 H       
  28 H28           -2.1815    -2.3258    -0.7859 H       
  29 H29           -6.1366     0.8557     2.0547 H       
  30 H30           -6.1461     2.3643     1.1100 H       
  31 H31           -1.5734    -2.2564     1.5447 H       
  32 H32           -3.0611    -3.1275     2.0434 H       
  33 H33           -6.1216     2.2748    -1.3868 H       
  34 H34           -6.0946     0.7026    -2.2208 H       
  35 H35           -8.3632     1.7021    -2.2788 H       
  36 H36           -8.3537     0.1935    -1.3341 H       
  37 H37           -8.1821     3.0155    -0.1834 H       
  38 H38           -9.6231     1.9709    -0.1601 H       
  39 H39           -8.3782     0.2830     1.1627 H       
  40 H40           -8.4051     1.8552     1.9967 H       
  41 H41           -4.4415    -4.2774    -0.3652 H       
  42 H42           -3.2332    -4.2116    -1.6793 H       
  43 H43           -3.1672    -5.8275     0.7289 H       
  44 H44           -1.9589    -5.7617    -0.5852 H       
  45 H45           -0.6125    -4.2332     0.5610 H       
  46 H46           -1.4382    -4.9105     1.9995 H       
  47 H47            2.1031     1.5030    -0.0292 H       
  48 H48            1.3159     2.7896    -0.9744 H       
  49 H49            1.2982     2.8542     0.8043 H       
@<TRIPOS>BOND
   1    1    2 1
   2    1   22 1
   3    1    6 2
   4    2    3 2
   5    2   23 1
   6    3    4 1
   7    3   24 1
   8    4    5 1
   9    4    7 1
  10    5    6 1
  11    5    9 2
  12    6   25 1
  13    7    8 2
  14    7   11 1
  15    8    9 1
  16    8   10 1
  17   10   15 1
  18   10   13 1
  19   10   26 1
  20   11   12 1
  21   11   27 1
  22   12   19 1
  23   12   14 1
  24   12   28 1
  25   13   18 1
  26   13   29 1
  27   13   30 1
  28   14   21 1
  29   14   31 1
  30   14   32 1
  31   15   16 1
  32   15   33 1
  33   15   34 1
  34   16   17 1
  35   16   35 1
  36   16   36 1
  37   17   18 1
  38   17   37 1
  39   17   38 1
  40   18   39 1
  41   18   40 1
  42   19   20 1
  43   19   41 1
  44   19   42 1
  45   20   21 1
  46   20   43 1
  47   20   44 1
  48   21   45 1
  49   21   46 1
  50   22   47 1
  51   22   48 1
  52   22   49 1

#	End of record

