#	Name: ASD05430197
#	Creating user name:	WinNT
#	Creation time:	15. 06. 2019 20:59

#	Modifying user name:	WinNT
#	Modification time:	15. 06. 2019 20:59

#	Program:	/corina/corina34_cracker 3.40 0067  02.08.2006

@<TRIPOS>MOLECULE
ASD05430197
  80   86    0    0    0
SMALL
NO_CHARGES


@<TRIPOS>ATOM
   1 C1            -0.0107     1.3644     0.1370 C.ar    
   2 C2             0.0095    -0.0029     0.0084 C.ar    
   3 C3             1.2273    -0.6670    -0.1055 C.ar    
   4 C4             2.3904     0.0775    -0.0854 C.ar    
   5 C5             2.3551     1.4470     0.0335 C.ar    
   6 C6             1.1420     2.1420     0.1378 C.ar    
   7 C7             5.3171     3.3493     1.5141 C.3     
   8 C8             4.0762     2.4639     1.5008 C.3     
   9 C9             3.6497     2.2183     0.0522 C.3     
  10 C10            6.2436     3.0337     2.6776 C.3     
  11 C11            5.5526     2.4009     3.8869 C.3     
  12 N12            4.9304     1.1536     3.4328 N.pl3   
  13 C13            4.3496     1.1411     2.1669 C.2     
  14 N14            4.0807     0.0276     1.5839 N.2     
  15 C15            3.5129    -0.1888     4.8722 C.ar    
  16 C16            3.2346    -1.2549     5.7072 C.ar    
  17 C17            1.9765    -1.3877     6.2633 C.ar    
  18 C18            0.9944    -0.4525     5.9839 C.ar    
  19 C19            1.2743     0.6148     5.1474 C.ar    
  20 C20            2.5332     0.7456     4.5925 C.ar    
  21 F21           -0.2360    -0.5815     6.5266 F       
  22 C22            4.8871    -0.0418     4.2714 C.3     
  23 C23            5.2011    -1.2631     3.3977 C.3     
  24 N24            4.3988    -1.1992     2.1738 N.pl3   
  25 C25            7.5246     2.2926     2.2602 C.3     
  26 O26            8.2029     3.1995     3.1532 O.3     
  27 C27            7.1697     4.2012     3.0584 C.3     
  28 C28            3.9228    -2.4403     1.5580 C.3     
  29 C29            5.9292     0.0743     5.3855 C.3     
  30 C30            0.9855     3.6387     0.2246 C.3     
  31 C31           -0.3589     4.1116     0.8301 C.3     
  32 Si32          -1.4150     2.6077     0.3642 Si      
  33 C33           -2.3497     2.8875    -1.2229 C.3     
  34 C34           -2.5569     2.1119     1.7502 C.3     
  35 N35           -1.1915    -0.7266    -0.0075 N.pl3   
  36 C36           -2.2362    -0.5389    -0.8551 C.2     
  37 C37           -1.5307    -1.7613     0.8256 C.2     
  38 C38           -2.7638    -2.1643     0.4649 C.2     
  39 N39           -3.1698    -1.4025    -0.5617 N.2     
  40 C40           -3.5501    -3.2811     1.1016 C.3     
  41 H41            1.2620    -1.7416    -0.2072 H       
  42 H42            3.3435    -0.4244    -0.1639 H       
  43 H43            5.8619     3.2071     0.5808 H       
  44 H44            5.0060     4.3916     1.5835 H       
  45 H45            3.2694     2.9705     2.0304 H       
  46 H46            4.4215     1.6451    -0.4616 H       
  47 H47            3.5104     3.1742    -0.4526 H       
  48 H48            6.2869     2.1873     4.6635 H       
  49 H49            4.7894     3.0765     4.2731 H       
  50 H50            4.0007    -1.9845     5.9247 H       
  51 H51            1.7592    -2.2208     6.9153 H       
  52 H52            0.5090     1.3449     4.9288 H       
  53 H53            2.7517     1.5780     3.9401 H       
  54 H54            6.2602    -1.2637     3.1398 H       
  55 H55            4.9583    -2.1741     3.9447 H       
  56 H56            7.5563     1.2513     2.5810 H       
  57 H57            7.7895     2.4258     1.2113 H       
  58 H58            7.3255     4.9210     2.2548 H       
  59 H59            6.9205     4.6697     4.0105 H       
  60 H60            2.9474    -2.6993     1.9698 H       
  61 H61            3.8369    -2.3015     0.4803 H       
  62 H62            4.6298    -3.2434     1.7658 H       
  63 H63            5.7135     0.9519     5.9949 H       
  64 H64            5.8948    -0.8187     6.0096 H       
  65 H65            6.9218     0.1723     4.9459 H       
  66 H66            1.7973     4.0360     0.8337 H       
  67 H67            1.0775     4.0543    -0.7788 H       
  68 H68           -0.2913     4.2345     1.9110 H       
  69 H69           -0.7188     5.0204     0.3477 H       
  70 H70           -1.6438     3.0750    -2.0321 H       
  71 H71           -2.9429     2.0032    -1.4559 H       
  72 H72           -3.0092     3.7479    -1.1093 H       
  73 H73           -3.1616     2.9689     2.0468 H       
  74 H74           -3.2091     1.3063     1.4131 H       
  75 H75           -1.9681     1.7706     2.6016 H       
  76 H76           -2.2861     0.2013    -1.6400 H       
  77 H77           -0.9250    -2.1741     1.6188 H       
  78 H78           -4.1520    -2.8822     1.9181 H       
  79 H79           -4.2035    -3.7358     0.3570 H       
  80 H80           -2.8635    -4.0332     1.4902 H       
@<TRIPOS>BOND
   1    1    2 ar
   2    1    6 ar
   3    1   32 1
   4    2    3 ar
   5    2   35 1
   6    3    4 ar
   7    3   41 1
   8    4    5 ar
   9    4   42 1
  10    5    6 ar
  11    5    9 1
  12    6   30 1
  13    7    8 1
  14    7   10 1
  15    7   43 1
  16    7   44 1
  17    8    9 1
  18    8   13 1
  19    8   45 1
  20    9   46 1
  21    9   47 1
  22   10   11 1
  23   10   25 1
  24   10   27 1
  25   11   12 1
  26   11   48 1
  27   11   49 1
  28   12   13 1
  29   12   22 1
  30   13   14 2
  31   14   24 1
  32   15   16 ar
  33   15   20 ar
  34   15   22 1
  35   16   17 ar
  36   16   50 1
  37   17   18 ar
  38   17   51 1
  39   18   19 ar
  40   18   21 1
  41   19   20 ar
  42   19   52 1
  43   20   53 1
  44   22   23 1
  45   22   29 1
  46   23   24 1
  47   23   54 1
  48   23   55 1
  49   24   28 1
  50   25   26 1
  51   25   56 1
  52   25   57 1
  53   26   27 1
  54   27   58 1
  55   27   59 1
  56   28   60 1
  57   28   61 1
  58   28   62 1
  59   29   63 1
  60   29   64 1
  61   29   65 1
  62   30   31 1
  63   30   66 1
  64   30   67 1
  65   31   32 1
  66   31   68 1
  67   31   69 1
  68   32   33 1
  69   32   34 1
  70   33   70 1
  71   33   71 1
  72   33   72 1
  73   34   73 1
  74   34   74 1
  75   34   75 1
  76   35   36 1
  77   35   37 1
  78   36   39 2
  79   36   76 1
  80   37   38 2
  81   37   77 1
  82   38   39 1
  83   38   40 1
  84   40   78 1
  85   40   79 1
  86   40   80 1

#	End of record

