#	Name: ASD01320097
#	Creating user name:	WinNT
#	Creation time:	15. 06. 2019 19:16

#	Modifying user name:	WinNT
#	Modification time:	15. 06. 2019 19:16

#	Program:	/corina/corina34_cracker 3.40 0067  02.08.2006

@<TRIPOS>MOLECULE
ASD01320097
  82   86    0    0    0
SMALL
NO_CHARGES


@<TRIPOS>ATOM
   1 C1             0.2639     3.1454     0.2697 C.3     
   2 C2            -0.5547     2.0824     0.9985 C.3     
   3 O3            -1.8253     2.6460     1.3596 O.3     
   4 C4            -0.7868     0.8859     0.0844 C.3     
   5 O5            -1.5983     1.2851    -1.0266 O.3     
   6 C6             0.5228     0.2953    -0.4374 C.3     
   7 C7             1.4486     1.3540    -0.9894 C.3     
   8 C8             2.8084     0.7987    -1.4060 C.3     
   9 C9             3.5288     1.8398    -2.2692 C.3     
  10 C10            3.6837     3.1680    -1.5388 C.3     
  11 C11            2.3730     3.6372    -0.9305 C.3     
  12 C12            1.6451     2.5780    -0.0977 C.3     
  13 C13            2.5111     4.9576    -0.1991 C.3     
  14 C14            3.6183     5.8124    -0.7316 C.2     
  15 C15            4.3798     5.5161    -1.7397 C.2     
  16 C16            4.1545     4.2494    -2.5368 C.3     
  17 C17            5.4781     3.8571    -3.1801 C.3     
  18 C18            6.0085     4.9351    -4.1134 C.3     
  19 C19            5.8412     6.3529    -3.5883 C.3     
  20 C20            5.5726     6.3729    -2.0895 C.3     
  21 C21            5.3648     7.8050    -1.6066 C.3     
  22 C22            6.5808     8.6749    -1.9133 C.3     
  23 C23            7.0107     8.5687    -3.3715 C.3     
  24 C24            7.1495     7.1258    -3.8343 C.3     
  25 C25            1.1727    -0.5727     0.6388 C.3     
  26 C26            0.1334    -0.6534    -1.6005 C.3     
  27 C27            2.3832     2.2582     1.1938 C.3     
  28 C28            4.7855     3.0295    -0.4778 C.3     
  29 C29            3.0934     4.4682    -3.6151 C.3     
  30 C30            4.7481     7.0483    -4.3510 C.2     
  31 O31            3.7748     7.4639    -3.7680 O.2     
  32 C32            6.2138    10.1409    -1.6186 C.3     
  33 O33            4.8533     7.2073    -5.6797 O.3     
  34 C34            7.7444     8.2829    -0.9965 C.3     
  35 H35           -0.2500     3.4526    -0.6390 H       
  36 H36            0.4002     4.0099     0.9206 H       
  37 H37           -0.0545     1.7672     1.9119 H       
  38 H38           -2.4084     2.0333     1.8285 H       
  39 H39           -1.3255     0.1106     0.6413 H       
  40 H40           -2.4678     1.6260    -0.7761 H       
  41 H41            0.9732     1.7342    -1.9287 H       
  42 H42            3.4194     0.5510    -0.5439 H       
  43 H43            2.6769    -0.1058    -2.0084 H       
  44 H44            4.5206     1.4499    -2.5230 H       
  45 H45            2.9633     1.9622    -3.1932 H       
  46 H46            1.6613     3.8352    -1.7679 H       
  47 H47            1.5762     5.5159    -0.3041 H       
  48 H48            2.6893     4.7943     0.8602 H       
  49 H49            3.7911     6.7491    -0.2263 H       
  50 H50            6.2392     3.6742    -2.4212 H       
  51 H51            5.3379     2.9380    -3.7575 H       
  52 H52            7.0753     4.7522    -4.2742 H       
  53 H53            5.5051     4.8518    -5.0763 H       
  54 H54            6.4547     5.9500    -1.5745 H       
  55 H55            4.4718     8.2426    -2.0448 H       
  56 H56            5.2285     7.7934    -0.5155 H       
  57 H57            6.3138     9.1147    -4.0081 H       
  58 H58            7.9909     9.0616    -3.4789 H       
  59 H59            7.9573     6.6323    -3.2942 H       
  60 H60            7.3732     7.1014    -4.9027 H       
  61 H61            0.5536    -1.4513     0.8197 H       
  62 H62            2.1611    -0.8873     0.3038 H       
  63 H63            1.2671     0.0014     1.5605 H       
  64 H64           -0.3782    -0.0849    -2.3772 H       
  65 H65            1.0332    -1.1075    -2.0157 H       
  66 H66           -0.5284    -1.4345    -1.2264 H       
  67 H67            1.7419     1.6587     1.8399 H       
  68 H68            3.2913     1.7006     0.9648 H       
  69 H69            2.6451     3.1862     1.7020 H       
  70 H70            5.7496     2.9011    -0.9699 H       
  71 H71            4.8096     3.9270     0.1402 H       
  72 H72            4.5792     2.1620     0.1491 H       
  73 H73            2.1632     4.7929    -3.1489 H       
  74 H74            3.4364     5.2324    -4.3126 H       
  75 H75            2.9240     3.5353    -4.1528 H       
  76 H76            5.9371    10.2423    -0.5692 H       
  77 H77            7.0708    10.7798    -1.8317 H       
  78 H78            5.3738    10.4383    -2.2463 H       
  79 H79            4.1253     7.6605    -6.1266 H       
  80 H80            7.9997     7.2360    -1.1609 H       
  81 H81            8.6094     8.9073    -1.2202 H       
  82 H82            7.4518     8.4265     0.0436 H       
@<TRIPOS>BOND
   1    1    2 1
   2    1   12 1
   3    1   35 1
   4    1   36 1
   5    2    3 1
   6    2    4 1
   7    2   37 1
   8    3   38 1
   9    4    5 1
  10    4    6 1
  11    4   39 1
  12    5   40 1
  13    6    7 1
  14    6   25 1
  15    6   26 1
  16    7    8 1
  17    7   12 1
  18    7   41 1
  19    8    9 1
  20    8   42 1
  21    8   43 1
  22    9   10 1
  23    9   44 1
  24    9   45 1
  25   10   11 1
  26   10   16 1
  27   10   28 1
  28   11   12 1
  29   11   13 1
  30   11   46 1
  31   12   27 1
  32   13   14 1
  33   13   47 1
  34   13   48 1
  35   14   15 2
  36   14   49 1
  37   15   16 1
  38   15   20 1
  39   16   17 1
  40   16   29 1
  41   17   18 1
  42   17   50 1
  43   17   51 1
  44   18   19 1
  45   18   52 1
  46   18   53 1
  47   19   20 1
  48   19   24 1
  49   19   30 1
  50   20   21 1
  51   20   54 1
  52   21   22 1
  53   21   55 1
  54   21   56 1
  55   22   23 1
  56   22   32 1
  57   22   34 1
  58   23   24 1
  59   23   57 1
  60   23   58 1
  61   24   59 1
  62   24   60 1
  63   25   61 1
  64   25   62 1
  65   25   63 1
  66   26   64 1
  67   26   65 1
  68   26   66 1
  69   27   67 1
  70   27   68 1
  71   27   69 1
  72   28   70 1
  73   28   71 1
  74   28   72 1
  75   29   73 1
  76   29   74 1
  77   29   75 1
  78   30   31 2
  79   30   33 1
  80   32   76 1
  81   32   77 1
  82   32   78 1
  83   33   79 1
  84   34   80 1
  85   34   81 1
  86   34   82 1

#	End of record

