#	Name: ASD01900730
#	Creating user name:	WinNT
#	Creation time:	15. 06. 2019 19:52

#	Modifying user name:	WinNT
#	Modification time:	15. 06. 2019 19:52

#	Program:	/corina/corina34_cracker 3.40 0067  02.08.2006

@<TRIPOS>MOLECULE
ASD01900730
  58   62    0    0    0
SMALL
NO_CHARGES


@<TRIPOS>ATOM
   1 C1            -0.0454     1.4363    -0.3738 C.ar    
   2 C2            -0.0435     0.0480    -0.3210 C.ar    
   3 C3            -1.2300    -0.6561    -0.2906 C.ar    
   4 C4            -2.4419     0.0213    -0.3124 C.ar    
   5 C5            -2.4416     1.4215    -0.3696 C.ar    
   6 O6            -3.6087    -0.6587    -0.2715 O.3     
   7 C7            -4.7785    -0.0752    -0.5857 C.2     
   8 C8            -4.9295     1.2715    -0.6627 C.2     
   9 C9            -3.7523     2.1193    -0.4054 C.2     
  10 C10           -5.9439    -0.9326    -0.8580 C.2     
  11 N11           -7.1373    -0.3743    -1.1775 N.2     
  12 C12           -8.1895    -1.0941    -1.4249 C.2     
  13 N13           -8.1485    -2.4605    -1.3758 N.pl3   
  14 C14           -6.9605    -3.0938    -1.0555 C.2     
  15 C15           -5.8210    -2.3104    -0.7937 C.2     
  16 C16           -1.2462     2.1273    -0.3923 C.ar    
  17 C17           -9.0948    -3.4162    -1.5895 C.2     
  18 C18           -8.5363    -4.6385    -1.4128 C.2     
  19 C19           -7.1918    -4.4565    -1.0758 C.2     
  20 O20            1.1312     2.1172    -0.4018 O.3     
  21 C21            2.3307     1.3410    -0.3743 C.3     
  22 C22            3.5399     2.2651    -0.5319 C.3     
  23 N23            3.5937     3.1986     0.6011 N.3     
  24 C24            4.7950     4.0431     0.5313 C.3     
  25 C25            3.5375     2.4775     1.8810 C.3     
  26 C26            3.5358     3.4887     3.0306 C.3     
  27 O27            4.6944     4.3209     2.9284 O.3     
  28 C28            4.7807     5.0386     1.6944 C.3     
  29 C29            4.7579     1.5634     2.0064 C.3     
  30 C30            6.0671     5.8667     1.6739 C.3     
  31 N31           -3.8556     3.4137    -0.2187 N.2     
  32 O32           -2.7205     4.1659     0.1696 O.3     
  33 H33            0.8955    -0.4853    -0.3040 H       
  34 H34           -1.2160    -1.7352    -0.2501 H       
  35 H35           -5.8862     1.7095    -0.9061 H       
  36 H36           -9.1182    -0.6027    -1.6748 H       
  37 H37           -4.8776    -2.7715    -0.5411 H       
  38 H38           -1.2523     3.2065    -0.4330 H       
  39 H39          -10.1246    -3.2301    -1.8565 H       
  40 H40           -9.0418    -5.5874    -1.5146 H       
  41 H41           -6.4705    -5.2335    -0.8699 H       
  42 H42            2.3993     0.8117     0.5761 H       
  43 H43            2.3156     0.6198    -1.1915 H       
  44 H44            4.4522     1.6690    -0.5551 H       
  45 H45            3.4492     2.8268    -1.4615 H       
  46 H46            5.6846     3.4169     0.5991 H       
  47 H47            4.8032     4.5871    -0.4133 H       
  48 H48            2.6277     1.8786     1.9217 H       
  49 H49            2.6387     4.1049     2.9719 H       
  50 H50            3.5519     2.9577     3.9824 H       
  51 H51            3.9198     5.6999     1.5969 H       
  52 H52            5.6624     2.1696     2.0559 H       
  53 H53            4.6718     0.9647     2.9132 H       
  54 H54            4.8091     0.9046     1.1396 H       
  55 H55            6.9273     5.2041     1.7695 H       
  56 H56            6.1323     6.4134     0.7332 H       
  57 H57            6.0581     6.5725     2.5044 H       
  58 H58           -2.8944     5.1104     0.2828 H       
@<TRIPOS>BOND
   1    1    2 ar
   2    1   20 1
   3    1   16 ar
   4    2    3 ar
   5    2   33 1
   6    3    4 ar
   7    3   34 1
   8    4    5 ar
   9    4    6 1
  10    5   16 ar
  11    5    9 1
  12    6    7 1
  13    7    8 2
  14    7   10 1
  15    8    9 1
  16    8   35 1
  17    9   31 2
  18   10   11 1
  19   10   15 2
  20   11   12 2
  21   12   13 1
  22   12   36 1
  23   13   14 1
  24   13   17 1
  25   14   15 1
  26   14   19 2
  27   15   37 1
  28   16   38 1
  29   17   18 2
  30   17   39 1
  31   18   19 1
  32   18   40 1
  33   19   41 1
  34   20   21 1
  35   21   22 1
  36   21   42 1
  37   21   43 1
  38   22   23 1
  39   22   44 1
  40   22   45 1
  41   23   24 1
  42   23   25 1
  43   24   28 1
  44   24   46 1
  45   24   47 1
  46   25   26 1
  47   25   29 1
  48   25   48 1
  49   26   27 1
  50   26   49 1
  51   26   50 1
  52   27   28 1
  53   28   30 1
  54   28   51 1
  55   29   52 1
  56   29   53 1
  57   29   54 1
  58   30   55 1
  59   30   56 1
  60   30   57 1
  61   31   32 1
  62   32   58 1

#	End of record

