#	Name: ASD01870150
#	Creating user name:	WinNT
#	Creation time:	15. 06. 2019 19:38

#	Modifying user name:	WinNT
#	Modification time:	15. 06. 2019 19:38

#	Program:	/corina/corina34_cracker 3.40 0067  02.08.2006

@<TRIPOS>MOLECULE
ASD01870150
  44   47    0    0    0
SMALL
NO_CHARGES


@<TRIPOS>ATOM
   1 C1            -0.1282     1.2459     0.2144 C.ar    
   2 C2            -0.1926    -0.1068    -0.1342 C.ar    
   3 C3             1.0547     1.7725     0.7427 C.ar    
   4 C4             2.1507     0.9581     0.9175 C.ar    
   5 C5             2.0826    -0.3870     0.5694 C.ar    
   6 C6             0.9078    -0.9146     0.0436 C.ar    
   7 N7             3.1976    -1.2104     0.7480 N.am    
   8 C8             3.2269    -2.2065     1.6419 C.2     
   9 C9             4.3224    -1.0715     0.0353 C.2     
  10 C10            5.3238    -2.1163     0.4769 C.3     
  11 C11            4.5734    -2.8938     1.5774 C.3     
  12 O12            4.5088    -0.2406    -0.8275 O.2     
  13 O13            2.3188    -2.5096     2.3854 O.2     
  14 C14            4.9759    -3.5933     0.2812 C.3     
  15 C15            3.8631    -3.9294    -0.7137 C.3     
  16 C16            6.1234    -4.6029     0.3516 C.3     
  17 C17           -1.3031     2.1166     0.0198 C.2     
  18 C18           -1.4399     3.3599     0.8066 C.ar    
  19 O19           -2.1589     1.8111    -0.7880 O.2     
  20 C20           -2.2434     4.4016     0.3383 C.ar    
  21 C21           -2.3669     5.5593     1.0782 C.ar    
  22 C22           -1.6970     5.6897     2.2817 C.ar    
  23 C23           -0.7707     3.4963     2.0251 C.ar    
  24 C24           -0.8990     4.6612     2.7519 C.ar    
  25 C25           -0.1732     4.8125     4.0640 C.3     
  26 H26           -1.1045    -0.5172    -0.5422 H       
  27 H27            1.1084     2.8168     1.0128 H       
  28 H28            3.0647     1.3641     1.3251 H       
  29 H29            0.8587    -1.9595    -0.2251 H       
  30 H30            6.3641    -1.8092     0.5848 H       
  31 H31            5.0467    -3.1732     2.5187 H       
  32 H32            3.3639    -3.0115    -1.0241 H       
  33 H33            4.2923    -4.4224    -1.5859 H       
  34 H34            3.1404    -4.5936    -0.2397 H       
  35 H35            5.8605    -5.4041     1.0423 H       
  36 H36            6.3008    -5.0210    -0.6393 H       
  37 H37            7.0263    -4.1028     0.7020 H       
  38 H38           -2.7666     4.3012    -0.6012 H       
  39 H39           -2.9877     6.3659     0.7170 H       
  40 H40           -1.7970     6.5984     2.8568 H       
  41 H41           -0.1512     2.6928     2.3953 H       
  42 H42           -0.8057     4.4478     4.8733 H       
  43 H43            0.7509     4.2352     4.0367 H       
  44 H44            0.0602     5.8641     4.2309 H       
@<TRIPOS>BOND
   1    1    2 ar
   2    1    3 ar
   3    1   17 1
   4    2    6 ar
   5    2   26 1
   6    3    4 ar
   7    3   27 1
   8    4    5 ar
   9    4   28 1
  10    5    6 ar
  11    5    7 1
  12    6   29 1
  13    7    8 am
  14    7    9 am
  15    8   13 2
  16    8   11 1
  17    9   12 2
  18    9   10 1
  19   10   11 1
  20   10   14 1
  21   10   30 1
  22   11   14 1
  23   11   31 1
  24   14   15 1
  25   14   16 1
  26   15   32 1
  27   15   33 1
  28   15   34 1
  29   16   35 1
  30   16   36 1
  31   16   37 1
  32   17   18 1
  33   17   19 2
  34   18   20 ar
  35   18   23 ar
  36   20   21 ar
  37   20   38 1
  38   21   22 ar
  39   21   39 1
  40   22   24 ar
  41   22   40 1
  42   23   24 ar
  43   23   41 1
  44   24   25 1
  45   25   42 1
  46   25   43 1
  47   25   44 1

#	End of record

