#	Name: ASD00170164
#	Creating user name:	WinNT
#	Creation time:	15. 06. 2019 18:31

#	Modifying user name:	WinNT
#	Modification time:	15. 06. 2019 18:31

#	Program:	/corina/corina34_cracker 3.40 0067  02.08.2006

@<TRIPOS>MOLECULE
ASD00170164
  27   28    0    0    0
SMALL
NO_CHARGES


@<TRIPOS>ATOM
   1 C1            -0.0159     1.3244     0.0093 C.2     
   2 C2             0.0021    -0.0041     0.0020 C.2     
   3 C3            -1.3411    -0.5808     0.0117 C.2     
   4 C4            -2.3315     0.3607     0.0261 C.2     
   5 S5            -1.6724     1.9285     0.0348 S.3     
   6 N6            -3.6835     0.0775     0.0374 N.pl3   
   7 C7            -1.5990    -2.0204     0.0066 C.2     
   8 O8            -1.7290    -2.6782    -1.1640 O.3     
   9 C9             1.4046     1.8766    -0.0013 C.3     
  10 C10            2.2930     0.6924     0.4304 C.3     
  11 C11            1.4409    -0.5128    -0.0149 C.3     
  12 O12           -1.6963    -2.6247     1.0581 O.2     
  13 C13           -1.9800    -4.0833    -1.0943 C.3     
  14 C14           -2.0965    -4.6515    -2.5101 C.3     
  15 H15           -3.9860    -0.8441     0.0354 H       
  16 H16           -4.3303     0.8003     0.0474 H       
  17 H17            1.6752     2.2079    -1.0038 H       
  18 H18            1.4973     2.6986     0.7085 H       
  19 H19            3.2488     0.7099    -0.0933 H       
  20 H20            2.4411     0.6885     1.5103 H       
  21 H21            1.5588    -1.3399     0.6853 H       
  22 H22            1.7211    -0.8242    -1.0212 H       
  23 H23           -1.1581    -4.5736    -0.5725 H       
  24 H24           -2.9101    -4.2599    -0.5542 H       
  25 H25           -2.9183    -4.1611    -3.0318 H       
  26 H26           -1.1663    -4.4749    -3.0501 H       
  27 H27           -2.2879    -5.7232    -2.4568 H       
@<TRIPOS>BOND
   1    1    2 2
   2    1    9 1
   3    1    5 1
   4    2    3 1
   5    2   11 1
   6    3    4 2
   7    3    7 1
   8    4    5 1
   9    4    6 1
  10    6   15 1
  11    6   16 1
  12    7    8 1
  13    7   12 2
  14    8   13 1
  15    9   10 1
  16    9   17 1
  17    9   18 1
  18   10   11 1
  19   10   19 1
  20   10   20 1
  21   11   21 1
  22   11   22 1
  23   13   14 1
  24   13   23 1
  25   13   24 1
  26   14   25 1
  27   14   26 1
  28   14   27 1

#	End of record

