#	Name: ASD01230646
#	Creating user name:	WinNT
#	Creation time:	15. 06. 2019 19:14

#	Modifying user name:	WinNT
#	Modification time:	15. 06. 2019 19:14

#	Program:	/corina/corina34_cracker 3.40 0067  02.08.2006

@<TRIPOS>MOLECULE
ASD01230646
  40   43    0    0    0
SMALL
NO_CHARGES


@<TRIPOS>ATOM
   1 C1            -0.0169     1.3982     0.0097 C.ar    
   2 C2             0.0021    -0.0041     0.0020 C.ar    
   3 C3             1.2326    -0.6605    -0.0132 C.ar    
   4 C4             2.3882     0.1054    -0.0201 C.ar    
   5 C5             2.2901     1.4831    -0.0118 C.ar    
   6 N6             1.1146     2.0834     0.0026 N.ar    
   7 N7            -1.2308     2.0714     0.0191 N.pl3   
   8 C8            -1.2641    -0.7755     0.0104 C.ar    
   9 C9            -1.4661    -1.7963    -0.9176 C.ar    
  10 C10           -2.6442    -2.5124    -0.9073 C.ar    
  11 C11           -3.6298    -2.2173     0.0265 C.ar    
  12 C12           -3.4311    -1.2006     0.9523 C.ar    
  13 C13           -2.2525    -0.4852     0.9500 C.ar    
  14 N14           -4.8266    -2.9461     0.0341 N.pl3   
  15 N15           -5.4903    -3.4532    -1.0905 N.2     
  16 C16           -6.5685    -4.0739    -0.6840 C.2     
  17 C17           -6.6269    -3.9825     0.7110 C.2     
  18 C18           -5.5424    -3.2894     1.1289 C.2     
  19 C19           -7.5743    -4.7671    -1.5665 C.3     
  20 F20           -7.1239    -4.7482    -2.8909 F       
  21 F21           -7.7291    -6.0922    -1.1455 F       
  22 F22           -8.8035    -4.1045    -1.4825 F       
  23 C23           -5.1961    -2.9571     2.5574 C.3     
  24 C24           -6.3531    -2.6669     3.5156 C.3     
  25 C25           -5.5741    -3.9786     3.6319 C.3     
  26 H26            1.2840    -1.7392    -0.0192 H       
  27 H27            3.3572    -0.3714    -0.0316 H       
  28 H28            3.1905     2.0794    -0.0168 H       
  29 H29           -2.0624     1.5720     0.0203 H       
  30 H30           -1.2475     3.0412     0.0245 H       
  31 H31           -0.7005    -2.0257    -1.6440 H       
  32 H32           -2.8012    -3.3033    -1.6258 H       
  33 H33           -4.1990    -0.9730     1.6768 H       
  34 H34           -2.0967     0.3021     1.6728 H       
  35 H35           -7.3990    -4.3959     1.3430 H       
  36 H36           -4.2726    -2.3957     2.6989 H       
  37 H37           -6.1906    -1.9149     4.2877 H       
  38 H38           -7.3647    -2.7164     3.1128 H       
  39 H39           -6.0732    -4.8910     3.3056 H       
  40 H40           -4.8991    -4.0895     4.4806 H       
@<TRIPOS>BOND
   1    1    2 ar
   2    1    6 ar
   3    1    7 1
   4    2    3 ar
   5    2    8 1
   6    3    4 ar
   7    3   26 1
   8    4    5 ar
   9    4   27 1
  10    5    6 ar
  11    5   28 1
  12    7   29 1
  13    7   30 1
  14    8    9 ar
  15    8   13 ar
  16    9   10 ar
  17    9   31 1
  18   10   11 ar
  19   10   32 1
  20   11   12 ar
  21   11   14 1
  22   12   13 ar
  23   12   33 1
  24   13   34 1
  25   14   15 1
  26   14   18 1
  27   15   16 2
  28   16   17 1
  29   16   19 1
  30   17   18 2
  31   17   35 1
  32   18   23 1
  33   19   20 1
  34   19   21 1
  35   19   22 1
  36   23   24 1
  37   23   25 1
  38   23   36 1
  39   24   25 1
  40   24   37 1
  41   24   38 1
  42   25   39 1
  43   25   40 1

#	End of record

