#	Name: ASD01903077
#	Creating user name:	WinNT
#	Creation time:	15. 06. 2019 19:54

#	Modifying user name:	WinNT
#	Modification time:	15. 06. 2019 19:54

#	Program:	/corina/corina34_cracker 3.40 0067  02.08.2006

@<TRIPOS>MOLECULE
ASD01903077
  29   31    0    0    0
SMALL
NO_CHARGES


@<TRIPOS>ATOM
   1 C1            -0.0160     1.2945     0.0213 C.2     
   2 N2             0.0004    -0.0032     0.0041 N.2     
   3 C3            -1.1730    -0.6193     0.0269 C.2     
   4 C4            -2.2469     0.1861     0.0655 C.2     
   5 S5            -1.6842     1.8559     0.0794 S.3     
   6 C6            -1.2919    -2.1000     0.0105 C.2     
   7 N7             1.1051     2.1111     0.0028 N.pl3   
   8 C8            -2.2692    -2.8634     0.6773 C.2     
   9 N9            -2.0436    -4.1253     0.4222 N.2     
  10 N10           -0.9221    -4.2168    -0.4111 N.pl3   
  11 C11           -0.4779    -2.9662    -0.6580 C.2     
  12 C12            0.9587     3.4915    -0.0934 C.ar    
  13 N13           -0.2457     4.0125    -0.2730 N.ar    
  14 C14           -0.4279     5.3175    -0.3690 C.ar    
  15 C15            0.6426     6.1905    -0.2843 C.ar    
  16 C16            1.9200     5.6823    -0.0963 C.ar    
  17 C17            2.0776     4.3112     0.0057 C.ar    
  18 C18           -3.6856    -0.2614     0.0971 C.3     
  19 F19           -1.6742     5.8057    -0.5525 F       
  20 H20            1.9910     1.7200     0.0570 H       
  21 H21           -3.0664    -2.4739     1.2931 H       
  22 H22           -0.5341    -5.0367    -0.7548 H       
  23 H23            0.3725    -2.7002    -1.2682 H       
  24 H24            0.4855     7.2560    -0.3641 H       
  25 H25            2.7719     6.3424    -0.0270 H       
  26 H26            3.0581     3.8828     0.1523 H       
  27 H27           -4.0058    -0.3828     1.1319 H       
  28 H28           -4.3097     0.4873    -0.3908 H       
  29 H29           -3.7820    -1.2122    -0.4270 H       
@<TRIPOS>BOND
   1    1    2 2
   2    1    7 1
   3    1    5 1
   4    2    3 1
   5    3    4 2
   6    3    6 1
   7    4    5 1
   8    4   18 1
   9    6    8 1
  10    6   11 2
  11    7   12 1
  12    7   20 1
  13    8    9 2
  14    8   21 1
  15    9   10 1
  16   10   11 1
  17   10   22 1
  18   11   23 1
  19   12   13 ar
  20   12   17 ar
  21   13   14 ar
  22   14   15 ar
  23   14   19 1
  24   15   16 ar
  25   15   24 1
  26   16   17 ar
  27   16   25 1
  28   17   26 1
  29   18   27 1
  30   18   28 1
  31   18   29 1

#	End of record

