#	Name: ASD08830190
#	Creating user name:	WinNT
#	Creation time:	15. 06. 2019 21:19

#	Modifying user name:	WinNT
#	Modification time:	15. 06. 2019 21:19

#	Program:	/corina/corina34_cracker 3.40 0067  02.08.2006

@<TRIPOS>MOLECULE
ASD08830190
  47   50    0    0    0
SMALL
NO_CHARGES


@<TRIPOS>ATOM
   1 C1            -0.0501     1.4704     0.0642 C.ar    
   2 C2            -0.0377     0.0014     0.0672 C.2     
   3 C3            -1.3363    -0.7630     0.0888 C.3     
   4 C4            -1.0441    -2.2649     0.0876 C.3     
   5 N5            -2.3099    -3.0100     0.1086 N.3     
   6 O6             1.0176    -0.5963     0.0524 O.2     
   7 C7            -1.2793     2.1602     0.0874 C.ar    
   8 C8            -2.0820    -4.4426    -0.1301 C.3     
   9 C9            -3.4162    -5.1880    -0.0406 C.3     
  10 O10           -4.3363    -4.6225    -0.9782 O.3     
  11 C11           -4.5819    -3.2284    -0.7746 C.3     
  12 C12           -3.2595    -2.4632    -0.8715 C.3     
  13 C13            1.1498     2.1704     0.0443 C.ar    
  14 C14            1.1305     3.5712     0.0420 C.ar    
  15 C15           -0.1145     4.2530     0.0600 C.ar    
  16 C16           -1.3147     3.5154     0.0855 C.ar    
  17 C17            2.3279     4.3114     0.0225 C.ar    
  18 C18            2.2851     5.6694     0.0211 C.ar    
  19 C19            1.0609     6.3498     0.0388 C.ar    
  20 C20           -0.1309     5.6545     0.0577 C.ar    
  21 N21            1.0464     7.7437     0.0373 N.pl3   
  22 C22            0.0443     8.4269    -0.6387 C.2     
  23 N23           -0.1613     9.7073    -0.6485 N.2     
  24 N24           -1.2153    10.1976    -1.3859 N.am    
  25 C25           -1.9623     9.2953    -2.0499 C.2     
  26 S26           -1.2154     7.7307    -1.6741 S.3     
  27 S27           -3.3259     9.5925    -3.0414 S.2     
  28 H28           -1.8963    -0.5026     0.9869 H       
  29 H29           -1.9236    -0.5065    -0.7929 H       
  30 H30           -0.4840    -2.5253    -0.8105 H       
  31 H31           -0.4568    -2.5214     0.9692 H       
  32 H32           -2.2038     1.6024     0.1065 H       
  33 H33           -1.6527    -4.5825    -1.1222 H       
  34 H34           -1.3962    -4.8324     0.6221 H       
  35 H35           -3.2609    -6.2415    -0.2732 H       
  36 H36           -3.8194    -5.0928     0.9676 H       
  37 H37           -5.2697    -2.8647    -1.5380 H       
  38 H38           -5.0190    -3.0763     0.2123 H       
  39 H39           -3.4332    -1.4080    -0.6604 H       
  40 H40           -2.8491    -2.5715    -1.8755 H       
  41 H41            2.0899     1.6390     0.0310 H       
  42 H42           -2.2640     4.0302     0.0993 H       
  43 H43            3.2792     3.8004     0.0091 H       
  44 H44            3.2071     6.2316     0.0064 H       
  45 H45           -1.0705     6.1870     0.0709 H       
  46 H46            1.7364     8.2364     0.5086 H       
  47 H47           -1.4106    11.1469    -1.4250 H       
@<TRIPOS>BOND
   1    1    2 1
   2    1   13 ar
   3    1    7 ar
   4    2    3 1
   5    2    6 2
   6    3    4 1
   7    3   28 1
   8    3   29 1
   9    4    5 1
  10    4   30 1
  11    4   31 1
  12    5    8 1
  13    5   12 1
  14    7   16 ar
  15    7   32 1
  16    8    9 1
  17    8   33 1
  18    8   34 1
  19    9   10 1
  20    9   35 1
  21    9   36 1
  22   10   11 1
  23   11   12 1
  24   11   37 1
  25   11   38 1
  26   12   39 1
  27   12   40 1
  28   13   14 ar
  29   13   41 1
  30   14   15 ar
  31   14   17 ar
  32   15   16 ar
  33   15   20 ar
  34   16   42 1
  35   17   18 ar
  36   17   43 1
  37   18   19 ar
  38   18   44 1
  39   19   20 ar
  40   19   21 1
  41   20   45 1
  42   21   22 1
  43   21   46 1
  44   22   23 2
  45   22   26 1
  46   23   24 1
  47   24   25 am
  48   24   47 1
  49   25   26 1
  50   25   27 2

#	End of record

