#	Name: ASD02039431
#	Creating user name:	WinNT
#	Creation time:	15. 06. 2019 20:18

#	Modifying user name:	WinNT
#	Modification time:	15. 06. 2019 20:18

#	Program:	/corina/corina34_cracker 3.40 0067  02.08.2006

@<TRIPOS>MOLECULE
ASD02039431
  58   62    0    0    0
SMALL
NO_CHARGES


@<TRIPOS>ATOM
   1 C1             0.0463     1.1601     0.0252 C.ar    
   2 C2             0.2686    -0.2035     0.0924 C.ar    
   3 C3             1.2136     2.1131     0.0348 C.3     
   4 N4             1.7354     2.2600    -1.3262 N.am    
   5 C5             1.3374     3.2948    -2.0925 C.2     
   6 C6             0.2937     4.2134    -1.6055 C.2     
   7 C7            -0.2770     5.2322    -2.3108 C.2     
   8 N8            -0.2796     4.1966    -0.3750 N.2     
   9 C9            -1.1584     5.1545    -0.3070 C.2     
  10 N10           -1.1824     5.8178    -1.4923 N.pl3   
  11 O11            1.8400     3.4703    -3.1861 O.2     
  12 C12           -2.0346     6.9621    -1.8248 C.3     
  13 C13            2.6897     1.2819    -1.8543 C.3     
  14 C14           -0.7970    -1.0850     0.0841 C.ar    
  15 C15           -2.3203     0.7684    -0.0710 C.ar    
  16 C16           -1.2416     1.6500    -0.0563 C.ar    
  17 C17           -3.7063     1.2890    -0.1586 C.ar    
  18 C18           -4.1226     2.3096     0.7120 C.ar    
  19 C19           -2.0918    -0.6066     0.0081 C.ar    
  20 C20           -4.5757     0.7689    -1.1007 C.ar    
  21 C21           -5.8823     1.2671    -1.1762 C.ar    
  22 C22           -6.2951     2.2954    -0.2879 C.ar    
  23 C23           -5.3860     2.8059     0.6540 C.ar    
  24 C24           -6.8148     0.7815    -2.1119 C.ar    
  25 C25           -7.6098     2.7770    -0.3853 C.ar    
  26 C26            2.1384     0.6751    -3.1483 C.3     
  27 C27            3.1757    -0.2864    -3.7342 C.3     
  28 O28            4.3992     0.4159    -3.9620 O.3     
  29 C29            4.9858     0.9646    -2.7801 C.3     
  30 C30            4.0213     1.9764    -2.1558 C.3     
  31 N31           -8.4262     2.2765    -1.2834 N.ar    
  32 C32           -8.0671     1.3166    -2.1245 C.ar    
  33 F33           -3.1327    -1.4678    -0.0005 F       
  34 H34            1.2786    -0.5814     0.1513 H       
  35 H35            0.8864     3.0846     0.4053 H       
  36 H36            1.9969     1.7217     0.6840 H       
  37 H37           -0.0497     5.5173    -3.3274 H       
  38 H38           -1.7717     5.3831     0.5521 H       
  39 H39           -1.5200     7.8866    -1.5630 H       
  40 H40           -2.2501     6.9563    -2.8932 H       
  41 H41           -2.9678     6.8948    -1.2655 H       
  42 H42            2.8470     0.4924    -1.1194 H       
  43 H43           -0.6174    -2.1486     0.1368 H       
  44 H44           -1.4123     2.7147    -0.1169 H       
  45 H45           -3.4283     2.7055     1.4383 H       
  46 H46           -4.2501    -0.0127    -1.7710 H       
  47 H47           -5.6921     3.5879     1.3331 H       
  48 H48           -6.5426     0.0003    -2.8062 H       
  49 H49           -7.9497     3.5584     0.2783 H       
  50 H50            1.2186     0.1315    -2.9327 H       
  51 H51            1.9332     1.4704    -3.8649 H       
  52 H52            3.3504    -1.1033    -3.0340 H       
  53 H53            2.8064    -0.6887    -4.6775 H       
  54 H54            5.1842     0.1641    -2.0674 H       
  55 H55            5.9204     1.4636    -3.0361 H       
  56 H56            3.8540     2.7979    -2.8525 H       
  57 H57            4.4480     2.3634    -1.2305 H       
  58 H58           -8.7879     0.9488    -2.8398 H       
@<TRIPOS>BOND
   1    1    2 ar
   2    1    3 1
   3    1   16 ar
   4    2   14 ar
   5    2   34 1
   6    3    4 1
   7    3   35 1
   8    3   36 1
   9    4    5 am
  10    4   13 1
  11    5    6 1
  12    5   11 2
  13    6    7 2
  14    6    8 1
  15    7   10 1
  16    7   37 1
  17    8    9 2
  18    9   10 1
  19    9   38 1
  20   10   12 1
  21   12   39 1
  22   12   40 1
  23   12   41 1
  24   13   26 1
  25   13   30 1
  26   13   42 1
  27   14   19 ar
  28   14   43 1
  29   15   16 ar
  30   15   17 1
  31   15   19 ar
  32   16   44 1
  33   17   20 ar
  34   17   18 ar
  35   18   23 ar
  36   18   45 1
  37   19   33 1
  38   20   21 ar
  39   20   46 1
  40   21   22 ar
  41   21   24 ar
  42   22   23 ar
  43   22   25 ar
  44   23   47 1
  45   24   32 ar
  46   24   48 1
  47   25   31 ar
  48   25   49 1
  49   26   27 1
  50   26   50 1
  51   26   51 1
  52   27   28 1
  53   27   52 1
  54   27   53 1
  55   28   29 1
  56   29   30 1
  57   29   54 1
  58   29   55 1
  59   30   56 1
  60   30   57 1
  61   31   32 ar
  62   32   58 1

#	End of record

