#	Name: ASD07730016
#	Creating user name:	WinNT
#	Creation time:	15. 06. 2019 21:11

#	Modifying user name:	WinNT
#	Modification time:	15. 06. 2019 21:11

#	Program:	/corina/corina34_cracker 3.40 0067  02.08.2006

@<TRIPOS>MOLECULE
ASD07730016
  39   41    0    0    0
SMALL
NO_CHARGES


@<TRIPOS>ATOM
   1 C1            -2.3543     1.3643     0.0212 C.ar    
   2 N2            -2.3343    -0.0371     0.0070 N.am    
   3 C3            -1.1612    -0.6933    -0.0923 C.2     
   4 N4            -1.1310    -2.0374     0.0013 N.am    
   5 C5            -2.3468    -2.7904     0.3385 C.3     
   6 C6             0.0598    -2.7412    -0.2269 C.ar    
   7 C7             0.1758    -4.0750     0.1301 C.ar    
   8 C8            -0.9667    -4.8216     0.7667 C.3     
   9 C9            -1.9691    -3.8453     1.3866 C.3     
  10 C10            1.1320    -2.0834    -0.8190 C.ar    
  11 C11            2.3141    -2.7578    -1.0499 C.ar    
  12 C12            2.4303    -4.0883    -0.6907 C.ar    
  13 C13            1.3662    -4.7438    -0.1028 C.ar    
  14 O14           -0.1302    -0.0726    -0.2664 O.2     
  15 C15           -3.5335     2.0487    -0.2639 C.ar    
  16 C16           -3.5474     3.4340    -0.2484 C.ar    
  17 C17           -2.3930     4.1339     0.0494 C.ar    
  18 C18           -1.2221     3.4551     0.3325 C.ar    
  19 C19           -1.2014     2.0732     0.3248 C.ar    
  20 O20           -4.6681     1.3589    -0.5571 O.3     
  21 C21           -5.8397     2.1269    -0.8391 C.3     
  22 H22           -3.1646    -0.5347     0.0687 H       
  23 H23           -3.0976    -2.1149     0.7485 H       
  24 H24           -2.7373    -3.2798    -0.5538 H       
  25 H25           -1.4743    -5.4174     0.0080 H       
  26 H26           -0.5775    -5.4824     1.5412 H       
  27 H27           -1.5151    -3.3530     2.2467 H       
  28 H28           -2.8599    -4.3881     1.7025 H       
  29 H29            1.0399    -1.0444    -1.0988 H       
  30 H30            3.1468    -2.2473    -1.5107 H       
  31 H31            3.3554    -4.6160    -0.8704 H       
  32 H32            1.4625    -5.7827     0.1760 H       
  33 H33           -4.4603     3.9672    -0.4694 H       
  34 H34           -2.4057     5.2138     0.0607 H       
  35 H35           -0.3226     4.0061     0.5643 H       
  36 H36           -0.2854     1.5455     0.5463 H       
  37 H37           -6.0868     2.7433     0.0252 H       
  38 H38           -5.6553     2.7675    -1.7015 H       
  39 H39           -6.6706     1.4557    -1.0562 H       
@<TRIPOS>BOND
   1    1    2 1
   2    1   15 ar
   3    1   19 ar
   4    2    3 am
   5    2   22 1
   6    3    4 am
   7    3   14 2
   8    4    5 1
   9    4    6 1
  10    5    9 1
  11    5   23 1
  12    5   24 1
  13    6    7 ar
  14    6   10 ar
  15    7    8 1
  16    7   13 ar
  17    8    9 1
  18    8   25 1
  19    8   26 1
  20    9   27 1
  21    9   28 1
  22   10   11 ar
  23   10   29 1
  24   11   12 ar
  25   11   30 1
  26   12   13 ar
  27   12   31 1
  28   13   32 1
  29   15   16 ar
  30   15   20 1
  31   16   17 ar
  32   16   33 1
  33   17   18 ar
  34   17   34 1
  35   18   19 ar
  36   18   35 1
  37   19   36 1
  38   20   21 1
  39   21   37 1
  40   21   38 1
  41   21   39 1

#	End of record

