#	Name: ASD01912710
#	Creating user name:	WinNT
#	Creation time:	15. 06. 2019 20:00

#	Modifying user name:	WinNT
#	Modification time:	15. 06. 2019 20:00

#	Program:	/corina/corina34_cracker 3.40 0067  02.08.2006

@<TRIPOS>MOLECULE
ASD01912710
  37   40    0    0    0
SMALL
NO_CHARGES


@<TRIPOS>ATOM
   1 C1            -0.0165     1.3669     0.0096 C.2     
   2 N2             0.0021    -0.0041     0.0020 N.pl3   
   3 C3            -1.2023    -0.6921     0.0091 C.2     
   4 C4            -2.3629    -0.0499     0.0230 C.2     
   5 N5            -2.4359     1.3309     0.0311 N.am    
   6 C6            -1.3019     2.0668     0.0309 C.2     
   7 C7             1.3014     1.7836    -0.0008 C.2     
   8 C8             2.0550     0.6110    -0.0143 C.2     
   9 N9             1.2243    -0.4045    -0.0118 N.2     
  10 O10           -1.3488     3.2837     0.0380 O.2     
  11 C11           -3.6786     1.9639     0.0452 C.ar    
  12 C12            3.5595     0.5249    -0.0291 C.3     
  13 O13            4.1121     1.8427    -0.0273 O.3     
  14 C14            5.4673     1.9435    -0.0397 C.ar    
  15 C15            6.0712     3.1925    -0.0388 C.ar    
  16 C16            7.4489     3.2922    -0.0514 C.ar    
  17 C17            8.2260     2.1486    -0.0650 C.ar    
  18 C18            7.6265     0.9027    -0.0664 C.ar    
  19 C19            6.2492     0.7975    -0.0476 C.ar    
  20 C20           -4.8439     1.2109     0.1561 C.ar    
  21 N21           -6.0181     1.8135     0.1696 N.ar    
  22 C22           -4.9318     3.8821    -0.0274 C.ar    
  23 N23           -3.7526     3.2855    -0.0415 N.ar    
  24 C24           -6.0879     3.1307     0.0779 C.ar    
  25 H25           -1.1950    -1.7721     0.0029 H       
  26 H26           -3.2785    -0.6228     0.0278 H       
  27 H27            1.6684     2.7994     0.0008 H       
  28 H28            3.9013    -0.0136     0.8548 H       
  29 H29            3.8843    -0.0041    -0.9251 H       
  30 H30            5.4647     4.0860    -0.0285 H       
  31 H31            7.9195     4.2643    -0.0511 H       
  32 H32            9.3029     2.2287    -0.0749 H       
  33 H33            8.2356     0.0109    -0.0778 H       
  34 H34            5.7814    -0.1759    -0.0487 H       
  35 H35           -4.7874     0.1349     0.2307 H       
  36 H36           -4.9926     4.9581    -0.0980 H       
  37 H37           -7.0501     3.6211     0.0888 H       
@<TRIPOS>BOND
   1    1    2 1
   2    1    7 2
   3    1    6 1
   4    2    3 1
   5    2    9 1
   6    3    4 2
   7    3   25 1
   8    4    5 1
   9    4   26 1
  10    5    6 am
  11    5   11 1
  12    6   10 2
  13    7    8 1
  14    7   27 1
  15    8    9 2
  16    8   12 1
  17   11   20 ar
  18   11   23 ar
  19   12   13 1
  20   12   28 1
  21   12   29 1
  22   13   14 1
  23   14   15 ar
  24   14   19 ar
  25   15   16 ar
  26   15   30 1
  27   16   17 ar
  28   16   31 1
  29   17   18 ar
  30   17   32 1
  31   18   19 ar
  32   18   33 1
  33   19   34 1
  34   20   21 ar
  35   20   35 1
  36   21   24 ar
  37   22   23 ar
  38   22   24 ar
  39   22   36 1
  40   24   37 1

#	End of record

