#	Name: ASD03090169
#	Creating user name:	WinNT
#	Creation time:	15. 06. 2019 20:28

#	Modifying user name:	WinNT
#	Modification time:	15. 06. 2019 20:28

#	Program:	/corina/corina34_cracker 3.40 0067  02.08.2006

@<TRIPOS>MOLECULE
ASD03090169
  53   55    0    0    0
SMALL
NO_CHARGES


@<TRIPOS>ATOM
   1 N1             0.4463     1.5130     1.4675 N.ar    
   2 C2             1.5496     2.1902     1.2088 C.ar    
   3 C3             2.7238     1.5365     0.8892 C.ar    
   4 C4             2.7303     0.1386     0.8425 C.ar    
   5 C5             1.5381    -0.5373     1.1239 C.ar    
   6 C6             0.4105     0.1947     1.4341 C.ar    
   7 C7             3.9645    -0.6051     0.5043 C.2     
   8 N8             5.7446    -3.4533    -0.5315 N.pl3   
   9 C9             4.8183    -4.4432    -0.8760 C.ar    
  10 C10            3.6018    -4.0895    -1.4447 C.ar    
  11 C11            2.6885    -5.0687    -1.7841 C.ar    
  12 C12            2.9851    -6.4019    -1.5571 C.ar    
  13 C13            4.1977    -6.7570    -0.9901 C.ar    
  14 C14            5.1162    -5.7818    -0.6549 C.ar    
  15 N15            4.0293    -1.8611     0.1104 N.2     
  16 C16            5.3009    -2.1998    -0.1059 C.2     
  17 N17            6.0689    -1.1645     0.1467 N.2     
  18 N18            5.2234    -0.1143     0.5394 N.pl3   
  19 C19            5.6266     1.2415     0.9207 C.3     
  20 C20            5.7323     2.1136    -0.3320 C.3     
  21 C21            6.1471     3.5082     0.0603 C.2     
  22 F22            2.0900    -7.3579    -1.8890 F       
  23 O23            6.3039     4.4517    -0.8815 O.3     
  24 O24            6.3385     3.7771     1.2226 O.2     
  25 C25            6.7048     5.7726    -0.4310 C.3     
  26 C26            8.0532     5.6794     0.2861 C.3     
  27 C27            6.8318     6.7059    -1.6367 C.3     
  28 C28            5.6519     6.3243     0.5323 C.3     
  29 Cl29           1.5244     3.9249     1.2705 Cl      
  30 C30            4.5175    -8.2090    -0.7443 C.3     
  31 F31            5.7882    -8.3157    -0.1688 F       
  32 F32            3.5655    -8.7559     0.1227 F       
  33 F33            4.4957    -8.9033    -1.9586 F       
  34 H34            3.6230     2.0962     0.6783 H       
  35 H35            1.5008    -1.6164     1.0982 H       
  36 H36           -0.5142    -0.3186     1.6526 H       
  37 H37            6.6952    -3.6378    -0.5884 H       
  38 H38            3.3698    -3.0496    -1.6213 H       
  39 H39            1.7423    -4.7941    -2.2264 H       
  40 H40            6.0619    -6.0592    -0.2131 H       
  41 H41            4.8836     1.6650     1.5966 H       
  42 H42            6.5943     1.2056     1.4211 H       
  43 H43            6.4753     1.6901    -1.0078 H       
  44 H44            4.7646     2.1495    -0.8324 H       
  45 H45            8.8033     5.2864    -0.4002 H       
  46 H46            8.3541     6.6709     0.6242 H       
  47 H47            7.9627     5.0145     1.1450 H       
  48 H48            5.8712     6.7723    -2.1475 H       
  49 H49            7.1328     7.6974    -1.2985 H       
  50 H50            7.5819     6.3128    -2.3230 H       
  51 H51            5.5615     5.6594     1.3913 H       
  52 H52            5.9529     7.3158     0.8705 H       
  53 H53            4.6914     6.3907     0.0215 H       
@<TRIPOS>BOND
   1    1    2 ar
   2    1    6 ar
   3    2    3 ar
   4    2   29 1
   5    3    4 ar
   6    3   34 1
   7    4    5 ar
   8    4    7 1
   9    5    6 ar
  10    5   35 1
  11    6   36 1
  12    7   15 2
  13    7   18 1
  14    8    9 1
  15    8   16 1
  16    8   37 1
  17    9   10 ar
  18    9   14 ar
  19   10   11 ar
  20   10   38 1
  21   11   12 ar
  22   11   39 1
  23   12   13 ar
  24   12   22 1
  25   13   14 ar
  26   13   30 1
  27   14   40 1
  28   15   16 1
  29   16   17 2
  30   17   18 1
  31   18   19 1
  32   19   20 1
  33   19   41 1
  34   19   42 1
  35   20   21 1
  36   20   43 1
  37   20   44 1
  38   21   23 1
  39   21   24 2
  40   23   25 1
  41   25   26 1
  42   25   27 1
  43   25   28 1
  44   26   45 1
  45   26   46 1
  46   26   47 1
  47   27   48 1
  48   27   49 1
  49   27   50 1
  50   28   51 1
  51   28   52 1
  52   28   53 1
  53   30   31 1
  54   30   32 1
  55   30   33 1

#	End of record

