#	Name: ASD01813669
#	Creating user name:	WinNT
#	Creation time:	15. 06. 2019 19:30

#	Modifying user name:	WinNT
#	Modification time:	15. 06. 2019 19:30

#	Program:	/corina/corina34_cracker 3.40 0067  02.08.2006

@<TRIPOS>MOLECULE
ASD01813669
  55   59    0    0    0
SMALL
NO_CHARGES


@<TRIPOS>ATOM
   1 C1             0.0987     1.4753     0.3556 C.ar    
   2 C2             0.0803     0.0890     0.3475 C.ar    
   3 C3             1.2503    -0.6314     0.2176 C.ar    
   4 C4             2.4682     0.0345     0.0920 C.ar    
   5 C5             2.4852     1.4397     0.0998 C.ar    
   6 C6             1.2932     2.1563     0.2326 C.ar    
   7 N7             3.6440    -0.6744    -0.0375 N.pl3   
   8 C8             4.8384    -0.0818    -0.1601 C.2     
   9 C9             4.9810     1.2911    -0.1654 C.2     
  10 C10            3.7795     2.1315    -0.0338 C.2     
  11 O11            3.8524     3.3479    -0.0334 O.2     
  12 C12            6.3099     1.9036    -0.3011 C.2     
  13 O13            6.4363     3.2457    -0.3049 O.3     
  14 O14            7.2953     1.1999    -0.4099 O.2     
  15 C15            3.5837    -2.1382    -0.0406 C.3     
  16 C16            3.4403    -2.6321    -1.4571 C.ar    
  17 C17            4.5551    -2.7791    -2.2608 C.ar    
  18 N18            4.4429    -3.2096    -3.5013 N.ar    
  19 C19            3.2641    -3.5179    -4.0266 C.ar    
  20 C20            2.0985    -3.3932    -3.2725 C.ar    
  21 C21            2.1879    -2.9489    -1.9652 C.ar    
  22 F22            1.2151    -1.9819     0.2125 F       
  23 F23            1.3093     3.5072     0.2397 F       
  24 C24            3.1861    -3.9985    -5.4270 C.ar    
  25 C25            1.9508    -4.2272    -6.0267 C.ar    
  26 N26            1.8763    -4.6544    -7.2712 N.ar    
  27 C27            2.9613    -4.8813    -7.9965 C.ar    
  28 C28            4.2319    -4.6751    -7.4648 C.ar    
  29 C29            4.3538    -4.2230    -6.1665 C.ar    
  30 N30            2.8301    -5.3309    -9.3034 N.3     
  31 C31            1.4142    -5.4834    -9.6685 C.3     
  32 C32            1.3145    -5.9221   -11.1319 C.3     
  33 O33            2.0537    -7.1330   -11.3127 O.3     
  34 C34            3.4369    -7.0202   -10.9672 C.3     
  35 C35            3.5581    -6.5926    -9.5021 C.3     
  36 H36           -0.8258     2.0247     0.4540 H       
  37 H37           -0.8601    -0.4331     0.4444 H       
  38 H38            5.7196    -0.6986    -0.2577 H       
  39 H39            7.3305     3.6022    -0.3966 H       
  40 H40            4.4990    -2.5405     0.3935 H       
  41 H41            2.7272    -2.4678     0.5476 H       
  42 H42            5.5313    -2.5377    -1.8670 H       
  43 H43            1.1394    -3.6438    -3.7013 H       
  44 H44            1.3021    -2.8427    -1.3564 H       
  45 H45            1.0442    -4.0532    -5.4662 H       
  46 H46            5.1114    -4.8629    -8.0628 H       
  47 H47            5.3266    -4.0541    -5.7287 H       
  48 H48            0.9529    -6.2371    -9.0304 H       
  49 H49            0.9001    -4.5311    -9.5382 H       
  50 H50            0.2693    -6.0916   -11.3907 H       
  51 H51            1.7275    -5.1442   -11.7740 H       
  52 H52            3.9267    -7.9839   -11.1067 H       
  53 H53            3.9116    -6.2742   -11.6045 H       
  54 H54            4.6090    -6.4500    -9.2503 H       
  55 H55            3.1311    -7.3640    -8.8613 H       
@<TRIPOS>BOND
   1    1    2 ar
   2    1    6 ar
   3    1   36 1
   4    2    3 ar
   5    2   37 1
   6    3   22 1
   7    3    4 ar
   8    4    5 ar
   9    4    7 1
  10    5    6 ar
  11    5   10 1
  12    6   23 1
  13    7    8 1
  14    7   15 1
  15    8    9 2
  16    8   38 1
  17    9   10 1
  18    9   12 1
  19   10   11 2
  20   12   13 1
  21   12   14 2
  22   13   39 1
  23   15   16 1
  24   15   40 1
  25   15   41 1
  26   16   17 ar
  27   16   21 ar
  28   17   18 ar
  29   17   42 1
  30   18   19 ar
  31   19   20 ar
  32   19   24 1
  33   20   21 ar
  34   20   43 1
  35   21   44 1
  36   24   25 ar
  37   24   29 ar
  38   25   26 ar
  39   25   45 1
  40   26   27 ar
  41   27   28 ar
  42   27   30 1
  43   28   29 ar
  44   28   46 1
  45   29   47 1
  46   30   31 1
  47   30   35 1
  48   31   32 1
  49   31   48 1
  50   31   49 1
  51   32   33 1
  52   32   50 1
  53   32   51 1
  54   33   34 1
  55   34   35 1
  56   34   52 1
  57   34   53 1
  58   35   54 1
  59   35   55 1

#	End of record

