#	Name: ASD01900011
#	Creating user name:	WinNT
#	Creation time:	15. 06. 2019 19:51

#	Modifying user name:	WinNT
#	Modification time:	15. 06. 2019 19:51

#	Program:	/corina/corina34_cracker 3.40 0067  02.08.2006

@<TRIPOS>MOLECULE
ASD01900011
  34   36    0    0    0
SMALL
NO_CHARGES


@<TRIPOS>ATOM
   1 C1            -0.0168     1.3887     0.0097 C.ar    
   2 C2             0.0021    -0.0041     0.0020 C.ar    
   3 C3             1.1794    -0.6880    -0.0129 C.ar    
   4 C4             2.3946     0.0169    -0.0208 C.ar    
   5 C5             2.3753     1.4339    -0.0130 C.ar    
   6 C6             1.1414     2.1047     0.0025 C.ar    
   7 N7             3.5667    -0.6296    -0.0349 N.ar    
   8 C8             4.6927     0.0597    -0.0416 C.ar    
   9 C9             4.6687     1.4660    -0.0335 C.ar    
  10 N10            3.5294     2.1140    -0.0200 N.ar    
  11 C11            5.9648     2.2349    -0.0409 C.3     
  12 N12            5.9076    -0.6075    -0.0563 N.pl3   
  13 N13            5.9376    -2.0081    -0.0640 N.2     
  14 C14            7.0754    -2.6330    -0.0778 C.2     
  15 C15            7.1069    -4.1071    -0.0859 C.ar    
  16 C16            8.3299    -4.7823    -0.1007 C.ar    
  17 C17            8.3530    -6.1610    -0.1077 C.ar    
  18 C18            7.1662    -6.8768    -0.1001 C.ar    
  19 C19            5.9498    -6.2125    -0.0855 C.ar    
  20 C20            5.9140    -4.8342    -0.0729 C.ar    
  21 F21            7.1951    -8.2275    -0.1076 F       
  22 H22           -0.9637     1.9081     0.0170 H       
  23 H23           -0.9302    -0.5492     0.0084 H       
  24 H24            1.1790    -1.7680    -0.0184 H       
  25 H25            1.1114     3.1843     0.0082 H       
  26 H26            6.2680     2.4261    -1.0702 H       
  27 H27            5.8279     3.1828     0.4796 H       
  28 H28            6.7359     1.6520     0.4627 H       
  29 H29            6.7371    -0.1046    -0.0613 H       
  30 H30            7.9989    -2.0730    -0.0833 H       
  31 H31            9.2554    -4.2256    -0.1070 H       
  32 H32            9.2978    -6.6841    -0.1195 H       
  33 H33            5.0283    -6.7756    -0.0796 H       
  34 H34            4.9656    -4.3176    -0.0611 H       
@<TRIPOS>BOND
   1    1    2 ar
   2    1    6 ar
   3    1   22 1
   4    2    3 ar
   5    2   23 1
   6    3    4 ar
   7    3   24 1
   8    4    5 ar
   9    4    7 ar
  10    5    6 ar
  11    5   10 ar
  12    6   25 1
  13    7    8 ar
  14    8    9 ar
  15    8   12 1
  16    9   10 ar
  17    9   11 1
  18   11   26 1
  19   11   27 1
  20   11   28 1
  21   12   13 1
  22   12   29 1
  23   13   14 2
  24   14   15 1
  25   14   30 1
  26   15   16 ar
  27   15   20 ar
  28   16   17 ar
  29   16   31 1
  30   17   18 ar
  31   17   32 1
  32   18   19 ar
  33   18   21 1
  34   19   20 ar
  35   19   33 1
  36   20   34 1

#	End of record

