#	Name: ASD06600078
#	Creating user name:	WinNT
#	Creation time:	15. 06. 2019 21:07

#	Modifying user name:	WinNT
#	Modification time:	15. 06. 2019 21:07

#	Program:	/corina/corina34_cracker 3.40 0067  02.08.2006

@<TRIPOS>MOLECULE
ASD06600078
 276  277    0    0    0
SMALL
NO_CHARGES


@<TRIPOS>ATOM
   1 C1             0.2068     1.0819    -2.2346 C.2     
   2 O2             0.2116    -0.1284    -2.1572 O.2     
   3 N3             2.6147     0.8784    -2.4576 N.am    
   4 C4             1.5027     1.8310    -2.4098 C.3     
   5 C5             1.4582     2.6288    -3.7146 C.3     
   6 C6             2.7014     3.4727    -3.8300 C.2     
   7 C7             3.5670     3.4697    -4.8616 C.2     
   8 N8             4.5453     4.3784    -4.5604 N.pl3   
   9 C9             4.2433     4.9055    -3.3543 C.2     
  10 N10            3.1365     4.3627    -2.9258 N.2     
  11 C11           -3.3517     1.8541    -2.5571 C.2     
  12 O12           -3.1286     2.9440    -3.0400 O.2     
  13 N13           -0.9581     1.7567    -2.1695 N.am    
  14 C14           -2.2184     1.0281    -2.0052 C.3     
  15 C15           -2.4611     0.7575    -0.5190 C.3     
  16 C16           -1.3776    -0.1833     0.0116 C.3     
  17 C17           -1.6203    -0.4539     1.4978 C.3     
  18 N18           -0.5828    -1.3548     2.0060 N.pl3   
  19 C19           -0.5944    -1.7420     3.3251 C.2     
  20 N20           -1.5285    -1.3075     4.1236 N.2     
  21 N21            0.3792    -2.5874     3.8020 N.pl3   
  22 C22           -7.0021     1.7854    -2.3760 C.2     
  23 O23           -6.9995     0.9159    -1.5305 O.2     
  24 N24           -4.6132     1.3816    -2.5139 N.am    
  25 C25           -5.7149     2.1845    -3.0503 C.3     
  26 C26           -5.8332     1.9460    -4.5570 C.3     
  27 C27           -4.5756     2.4662    -5.2560 C.3     
  28 C28           -4.6377     2.1166    -6.7443 C.3     
  29 C29           -4.4921     3.9850    -5.0920 C.3     
  30 C30          -10.5693     2.3294    -2.9609 C.2     
  31 O31          -10.3715     2.8337    -4.0460 O.2     
  32 N32           -8.1562     2.3948    -2.7124 N.am    
  33 C33           -9.4076     2.0068    -2.0568 C.3     
  34 C34           -9.5549     2.7765    -0.7428 C.3     
  35 C35           -8.4448     2.3553     0.2223 C.3     
  36 C36           -8.5921     3.1250     1.5363 C.3     
  37 N37           -7.5292     2.7217     2.4603 N.pl3   
  38 C38           -7.4575     3.2836     3.7130 C.2     
  39 N39           -8.3351     4.1753     4.0785 N.2     
  40 N40           -6.4600     2.9051     4.5801 N.pl3   
  41 C41          -14.2006     2.5654    -2.6130 C.2     
  42 O42          -14.1483     2.4531    -1.4065 O.2     
  43 N43          -11.8282     2.0574    -2.5636 N.am    
  44 C44          -12.9575     2.3710    -3.4424 C.3     
  45 C45          -13.1749     1.2181    -4.4246 C.3     
  46 C46          -11.9622     1.1011    -5.3500 C.3     
  47 C47          -12.1763    -0.0345    -6.3174 C.2     
  48 O48          -13.1982    -0.6859    -6.2712 O.2     
  49 N49          -11.2321    -0.3260    -7.2339 N.am    
  50 C50          -17.7950     2.7662    -3.2481 C.2     
  51 O51          -17.6650     2.4362    -4.4079 O.2     
  52 N52          -15.3705     2.8641    -3.2119 N.am    
  53 C53          -16.5789     3.0532    -2.4056 C.3     
  54 C54          -16.6359     4.4971    -1.9029 C.3     
  55 C55          -21.3945     3.3410    -2.9728 C.2     
  56 O56          -21.2647     4.0358    -1.9872 O.2     
  57 N57          -19.0270     2.8762    -2.7128 N.am    
  58 C58          -20.2091     2.5972    -3.5319 C.3     
  59 C59          -20.4967     1.0945    -3.5171 C.3     
  60 C60          -19.3474     0.3486    -4.1979 C.3     
  61 C61          -19.6307    -1.1315    -4.1834 C.2     
  62 O62          -20.6514    -1.5486    -3.6783 O.2     
  63 N63          -18.7498    -1.9916    -4.7318 N.am    
  64 C64          -25.0213     3.2497    -3.4217 C.2     
  65 O65          -24.9689     2.2408    -4.0926 O.2     
  66 N66          -22.5990     3.2342    -3.5681 N.am    
  67 C67          -23.7514     3.9573    -3.0246 C.3     
  68 C68          -23.7670     5.3830    -3.5797 C.3     
  69 C69          -22.5380     6.1409    -3.0735 C.3     
  70 C70          -22.5536     7.5665    -3.6286 C.3     
  71 N71          -21.3769     8.2922    -3.1439 N.pl3   
  72 C72          -21.1758     9.6009    -3.5139 C.2     
  73 N73          -22.0320    10.1960    -4.2961 N.2     
  74 N74          -20.0715    10.2820    -3.0590 N.pl3   
  75 C75          -28.5918     4.0334    -3.4231 C.2     
  76 O76          -28.5418     5.0252    -2.7269 O.2     
  77 N77          -26.2152     3.7382    -3.0312 N.am    
  78 C78          -27.4497     3.0503    -3.4172 C.3     
  79 C79          -27.7448     1.9317    -2.4159 C.3     
  80 C80          -26.6556     0.8615    -2.5112 C.3     
  81 C81          -26.9507    -0.2571    -1.5099 C.3     
  82 N82          -25.9078    -1.2819    -1.6012 N.pl3   
  83 C83          -25.9616    -2.3915    -0.7913 C.2     
  84 N84          -25.0338    -3.3033    -0.8725 N.2     
  85 N85          -26.9942    -2.5394     0.1043 N.pl3   
  86 C86          -31.5264     4.6427    -2.8616 C.2     
  87 O87          -31.0135     4.0326    -1.9475 O.2     
  88 N88          -29.6689     3.8105    -4.2020 N.am    
  89 C89          -30.8912     4.6271    -4.2281 C.3     
  90 C90          -31.8531     3.9797    -5.2466 C.3     
  91 C91          -31.3456     2.5154    -5.3216 C.3     
  92 C92          -29.8139     2.7113    -5.1736 C.3     
  93 C93          -34.7575     5.6246    -1.4620 C.2     
  94 O94          -35.2453     5.7913    -2.5598 O.2     
  95 N95          -32.6645     5.3347    -2.6553 N.am    
  96 C96          -33.2819     5.3498    -1.3269 C.3     
  97 C97          -32.6351     6.4448    -0.4763 C.3     
  98 C98          -31.1639     6.1008    -0.2349 C.3     
  99 C99          -30.5267     7.1793     0.6029 C.2     
 100 O100         -31.1845     8.1295     0.9707 O.2     
 101 N101         -29.2259     7.0878     0.9434 N.am    
 102 C102         -37.1993     7.4399    -0.5620 C.2     
 103 O103         -36.2612     8.1993    -0.5064 O.2     
 104 N104         -35.5351     5.6850    -0.3628 N.am    
 105 C105         -36.9695     5.9521    -0.4941 C.3     
 106 C106         -37.7083     5.3767     0.7159 C.3     
 107 C107         -37.5787     3.8522     0.7149 C.3     
 108 C108         -38.3174     3.2767     1.9249 C.3     
 109 N109         -38.1933     1.8170     1.9239 N.pl3   
 110 C110         -38.7805     1.0765     2.9225 C.2     
 111 N111         -39.4476     1.6733     3.8700 N.2     
 112 N112         -38.6640    -0.2933     2.9216 N.pl3   
 113 O113         -38.4463     7.9216    -0.6842 O.3     
 114 C114           3.8552     1.2726    -2.1079 C.2     
 115 O115           4.0508     2.4159    -1.7536 O.2     
 116 C116          22.1447    -1.7912     0.5931 C.3     
 117 C117          20.9833    -0.7964     0.6429 C.3     
 118 C118          19.6953    -1.4935     0.2002 C.3     
 119 C119          18.5339    -0.4987     0.2501 C.3     
 120 C120          17.2459    -1.1958    -0.1926 C.3     
 121 C121          16.0846    -0.2010    -0.1428 C.3     
 122 C122          14.7966    -0.8981    -0.5855 C.3     
 123 C123          13.6352     0.0967    -0.5357 C.3     
 124 C124          12.3472    -0.6004    -0.9784 C.3     
 125 C125          11.1858     0.3944    -0.9285 C.3     
 126 C126           9.8978    -0.3027    -1.3712 C.3     
 127 C127           8.7365     0.6921    -1.3214 C.3     
 128 C128           7.4484    -0.0049    -1.7641 C.3     
 129 C129           6.2871     0.9899    -1.7142 C.3     
 130 C130           4.9991     0.2928    -2.1570 C.3     
 131 H131           2.4582    -0.0360    -2.7409 H       
 132 H132           1.6443     2.5131    -1.5715 H       
 133 H133           1.4059     1.9416    -4.5591 H       
 134 H134           0.5796     3.2739    -3.7162 H       
 135 H135           3.5020     2.8661    -5.7548 H       
 136 H136           5.3123     4.6021    -5.1105 H       
 137 H137           4.8199     5.6550    -2.8326 H       
 138 H138          -0.9620     2.7247    -2.2314 H       
 139 H139          -2.1635     0.0814    -2.5427 H       
 140 H140          -2.4276     1.6976     0.0316 H       
 141 H141          -3.4395     0.2950    -0.3890 H       
 142 H142          -1.4111    -1.1234    -0.5390 H       
 143 H143          -0.3992     0.2792    -0.1184 H       
 144 H144          -1.5867     0.4862     2.0485 H       
 145 H145          -2.5987    -0.9165     1.6279 H       
 146 H146           0.1124    -1.6781     1.4117 H       
 147 H147          -1.5367    -1.5807     5.0543 H       
 148 H148           1.0744    -2.9108     3.2077 H       
 149 H149           0.3710    -2.8606     4.7327 H       
 150 H150          -4.7916     0.5099    -2.1276 H       
 151 H151          -5.5192     3.2405    -2.8639 H       
 152 H152          -5.9402     0.8783    -4.7486 H       
 153 H153          -6.7066     2.4733    -4.9408 H       
 154 H154          -3.6947     2.0037    -4.8106 H       
 155 H155          -5.5185     2.5791    -7.1896 H       
 156 H156          -3.7417     2.4871    -7.2422 H       
 157 H157          -4.6972     1.0345    -6.8611 H       
 158 H158          -5.3729     4.4475    -5.5373 H       
 159 H159          -4.4478     4.2341    -4.0317 H       
 160 H160          -3.5961     4.3556    -5.5899 H       
 161 H161          -8.1583     3.0902    -3.3886 H       
 162 H162          -9.3934     0.9364    -1.8513 H       
 163 H163          -9.4800     3.8463    -0.9380 H       
 164 H164         -10.5255     2.5553    -0.2989 H       
 165 H165          -8.5197     1.2855     0.4175 H       
 166 H166          -7.4742     2.5765    -0.2216 H       
 167 H167          -8.5172     4.1948     1.3411 H       
 168 H168          -9.5627     2.9038     1.9802 H       
 169 H169          -6.8761     2.0581     2.1883 H       
 170 H170          -8.2845     4.5718     4.9623 H       
 171 H171          -5.8069     2.2415     4.3081 H       
 172 H172          -6.4094     3.3016     5.4639 H       
 173 H173         -11.9864     1.6541    -1.6957 H       
 174 H174         -12.7439     3.2850    -3.9966 H       
 175 H175         -13.3005     0.2878    -3.8707 H       
 176 H176         -14.0682     1.4106    -5.0188 H       
 177 H177         -11.8366     2.0314    -5.9039 H       
 178 H178         -11.0689     0.9086    -4.7558 H       
 179 H179         -10.4148     0.1950    -7.2709 H       
 180 H180         -11.3699    -1.0569    -7.8566 H       
 181 H181         -15.4123     2.9539    -4.1768 H       
 182 H182         -16.5579     2.3727    -1.5543 H       
 183 H183         -16.6570     5.1776    -2.7541 H       
 184 H184         -17.5351     4.6377    -1.3030 H       
 185 H185         -15.7564     4.7047    -1.2935 H       
 186 H186         -19.1309     3.1401    -1.7852 H       
 187 H187         -20.0264     2.9221    -4.5561 H       
 188 H188         -20.5916     0.7529    -2.4864 H       
 189 H189         -21.4256     0.8971    -4.0523 H       
 190 H190         -19.2525     0.6903    -5.2287 H       
 191 H191         -18.4186     0.5460    -3.6628 H       
 192 H192         -17.9335    -1.6580    -5.1358 H       
 193 H193         -18.9322    -2.9442    -4.7225 H       
 194 H194         -22.7029     2.6786    -4.3563 H       
 195 H195         -23.6792     3.9915    -1.9375 H       
 196 H196         -23.7495     5.3489    -4.6691 H       
 197 H197         -24.6710     5.8928    -3.2466 H       
 198 H198         -22.5555     6.1750    -1.9842 H       
 199 H199         -21.6340     5.6311    -3.4067 H       
 200 H200         -22.5362     7.5325    -4.7180 H       
 201 H201         -23.4576     8.0763    -3.2955 H       
 202 H202         -20.7397     7.8494    -2.5618 H       
 203 H203         -21.8900    11.1194    -4.5571 H       
 204 H204         -19.4343     9.8391    -2.4770 H       
 205 H205         -19.9296    11.2053    -3.3201 H       
 206 H206         -26.2571     4.5451    -2.4946 H       
 207 H207         -27.3320     2.6242    -4.4136 H       
 208 H208         -27.7627     2.3430    -1.4066 H       
 209 H209         -28.7131     1.4861    -2.6439 H       
 210 H210         -26.6377     0.4502    -3.5205 H       
 211 H211         -25.6874     1.3071    -2.2833 H       
 212 H212         -26.9686     0.1542    -0.5006 H       
 213 H213         -27.9189    -0.7027    -1.7379 H       
 214 H214         -25.1793    -1.1776    -2.2331 H       
 215 H215         -25.0718    -4.0862    -0.3011 H       
 216 H216         -27.6847    -1.8609     0.1647 H       
 217 H217         -27.0322    -3.3223     0.6757 H       
 218 H218         -30.6509     5.6445    -4.5367 H       
 219 H219         -32.8800     4.0138    -4.8828 H       
 220 H220         -31.7706     4.4666    -6.2183 H       
 221 H221         -31.7478     1.9201    -4.5018 H       
 222 H222         -31.5891     2.0663    -6.2844 H       
 223 H223         -29.3706     2.9892    -6.1298 H       
 224 H224         -29.3509     1.8022    -4.7898 H       
 225 H225         -33.0747     5.8226    -3.3865 H       
 226 H226         -33.1349     4.3824    -0.8468 H       
 227 H227         -32.7041     7.3990    -0.9986 H       
 228 H228         -33.1532     6.5157     0.4800 H       
 229 H229         -31.0949     5.1466     0.2874 H       
 230 H230         -30.6457     6.0299    -1.1913 H       
 231 H231         -28.6998     6.3279     0.6492 H       
 232 H232         -28.8158     7.7820     1.4827 H       
 233 H233         -35.1449     5.5517     0.5152 H       
 234 H234         -37.3443     5.4847    -1.4046 H       
 235 H235         -37.2735     5.7777     1.6315 H       
 236 H236         -38.7617     5.6518     0.6630 H       
 237 H237         -38.0134     3.4512    -0.2007 H       
 238 H238         -36.5253     3.5771     0.7678 H       
 239 H239         -37.8826     3.6778     2.8405 H       
 240 H240         -39.3708     3.5519     1.8720 H       
 241 H241         -37.6968     1.3729     1.2188 H       
 242 H242         -39.8618     1.1508     4.5745 H       
 243 H243         -38.1675    -0.7374     2.2164 H       
 244 H244         -39.0783    -0.8158     3.6261 H       
 245 H245         -38.5437     8.8828    -0.7237 H       
 246 H246          23.0623    -1.2946     0.9085 H       
 247 H247          21.9360    -2.6271     1.2608 H       
 248 H248          22.2631    -2.1607    -0.4255 H       
 249 H249          20.8648    -0.4270     1.6615 H       
 250 H250          21.1920     0.0395    -0.0248 H       
 251 H251          19.8138    -1.8630    -0.8184 H       
 252 H252          19.4866    -2.3294     0.8679 H       
 253 H253          18.4155    -0.1293     1.2687 H       
 254 H254          18.7426     0.3372    -0.4176 H       
 255 H255          17.3644    -1.5653    -1.2113 H       
 256 H256          17.0372    -2.0317     0.4751 H       
 257 H257          15.9661     0.1685     0.8758 H       
 258 H258          16.2933     0.6349    -0.8105 H       
 259 H259          14.9150    -1.2675    -1.6041 H       
 260 H260          14.5879    -1.7340     0.0822 H       
 261 H261          13.5167     0.4662     0.4830 H       
 262 H262          13.8439     0.9326    -1.2034 H       
 263 H263          12.4657    -0.9698    -1.9970 H       
 264 H264          12.1385    -1.4363    -0.3107 H       
 265 H265          11.0674     0.7639     0.0901 H       
 266 H266          11.3945     1.2303    -1.5962 H       
 267 H267          10.0163    -0.6721    -2.3898 H       
 268 H268           9.6891    -1.1386    -0.7035 H       
 269 H269           8.6180     1.0616    -0.3028 H       
 270 H270           8.9451     1.5280    -1.9891 H       
 271 H271           7.5669    -0.3744    -2.7827 H       
 272 H272           7.2397    -0.8408    -1.0964 H       
 273 H273           6.1686     1.3593    -0.6956 H       
 274 H274           6.4958     1.8258    -2.3819 H       
 275 H275           4.7904    -0.5431    -1.4892 H       
 276 H276           5.1175    -0.0767    -3.1756 H       
@<TRIPOS>BOND
   1    1    2 2
   2    1    4 1
   3    1   13 am
   4    3  114 am
   5    3    4 1
   6    3  131 1
   7    4    5 1
   8    4  132 1
   9    5    6 1
  10    5  133 1
  11    5  134 1
  12    6    7 2
  13    6   10 1
  14    7    8 1
  15    7  135 1
  16    8    9 1
  17    8  136 1
  18    9   10 2
  19    9  137 1
  20   11   12 2
  21   11   14 1
  22   11   24 am
  23   13   14 1
  24   13  138 1
  25   14   15 1
  26   14  139 1
  27   15   16 1
  28   15  140 1
  29   15  141 1
  30   16   17 1
  31   16  142 1
  32   16  143 1
  33   17   18 1
  34   17  144 1
  35   17  145 1
  36   18   19 1
  37   18  146 1
  38   19   20 2
  39   19   21 1
  40   20  147 1
  41   21  148 1
  42   21  149 1
  43   22   23 2
  44   22   25 1
  45   22   32 am
  46   24   25 1
  47   24  150 1
  48   25   26 1
  49   25  151 1
  50   26   27 1
  51   26  152 1
  52   26  153 1
  53   27   28 1
  54   27   29 1
  55   27  154 1
  56   28  155 1
  57   28  156 1
  58   28  157 1
  59   29  158 1
  60   29  159 1
  61   29  160 1
  62   30   31 2
  63   30   33 1
  64   30   43 am
  65   32   33 1
  66   32  161 1
  67   33   34 1
  68   33  162 1
  69   34   35 1
  70   34  163 1
  71   34  164 1
  72   35   36 1
  73   35  165 1
  74   35  166 1
  75   36   37 1
  76   36  167 1
  77   36  168 1
  78   37   38 1
  79   37  169 1
  80   38   39 2
  81   38   40 1
  82   39  170 1
  83   40  171 1
  84   40  172 1
  85   41   42 2
  86   41   44 1
  87   41   52 am
  88   43   44 1
  89   43  173 1
  90   44   45 1
  91   44  174 1
  92   45   46 1
  93   45  175 1
  94   45  176 1
  95   46   47 1
  96   46  177 1
  97   46  178 1
  98   47   48 2
  99   47   49 am
 100   49  179 1
 101   49  180 1
 102   50   51 2
 103   50   53 1
 104   50   57 am
 105   52   53 1
 106   52  181 1
 107   53   54 1
 108   53  182 1
 109   54  183 1
 110   54  184 1
 111   54  185 1
 112   55   56 2
 113   55   58 1
 114   55   66 am
 115   57   58 1
 116   57  186 1
 117   58   59 1
 118   58  187 1
 119   59   60 1
 120   59  188 1
 121   59  189 1
 122   60   61 1
 123   60  190 1
 124   60  191 1
 125   61   62 2
 126   61   63 am
 127   63  192 1
 128   63  193 1
 129   64   65 2
 130   64   67 1
 131   64   77 am
 132   66   67 1
 133   66  194 1
 134   67   68 1
 135   67  195 1
 136   68   69 1
 137   68  196 1
 138   68  197 1
 139   69   70 1
 140   69  198 1
 141   69  199 1
 142   70   71 1
 143   70  200 1
 144   70  201 1
 145   71   72 1
 146   71  202 1
 147   72   73 2
 148   72   74 1
 149   73  203 1
 150   74  204 1
 151   74  205 1
 152   75   76 2
 153   75   78 1
 154   75   88 am
 155   77   78 1
 156   77  206 1
 157   78   79 1
 158   78  207 1
 159   79   80 1
 160   79  208 1
 161   79  209 1
 162   80   81 1
 163   80  210 1
 164   80  211 1
 165   81   82 1
 166   81  212 1
 167   81  213 1
 168   82   83 1
 169   82  214 1
 170   83   84 2
 171   83   85 1
 172   84  215 1
 173   85  216 1
 174   85  217 1
 175   86   87 2
 176   86   95 am
 177   86   89 1
 178   88   89 1
 179   88   92 1
 180   89   90 1
 181   89  218 1
 182   90   91 1
 183   90  219 1
 184   90  220 1
 185   91   92 1
 186   91  221 1
 187   91  222 1
 188   92  223 1
 189   92  224 1
 190   93   94 2
 191   93   96 1
 192   93  104 am
 193   95   96 1
 194   95  225 1
 195   96   97 1
 196   96  226 1
 197   97   98 1
 198   97  227 1
 199   97  228 1
 200   98   99 1
 201   98  229 1
 202   98  230 1
 203   99  100 2
 204   99  101 am
 205  101  231 1
 206  101  232 1
 207  102  103 2
 208  102  105 1
 209  102  113 1
 210  104  105 1
 211  104  233 1
 212  105  106 1
 213  105  234 1
 214  106  107 1
 215  106  235 1
 216  106  236 1
 217  107  108 1
 218  107  237 1
 219  107  238 1
 220  108  109 1
 221  108  239 1
 222  108  240 1
 223  109  110 1
 224  109  241 1
 225  110  111 2
 226  110  112 1
 227  111  242 1
 228  112  243 1
 229  112  244 1
 230  113  245 1
 231  114  115 2
 232  114  130 1
 233  116  117 1
 234  116  246 1
 235  116  247 1
 236  116  248 1
 237  117  118 1
 238  117  249 1
 239  117  250 1
 240  118  119 1
 241  118  251 1
 242  118  252 1
 243  119  120 1
 244  119  253 1
 245  119  254 1
 246  120  121 1
 247  120  255 1
 248  120  256 1
 249  121  122 1
 250  121  257 1
 251  121  258 1
 252  122  123 1
 253  122  259 1
 254  122  260 1
 255  123  124 1
 256  123  261 1
 257  123  262 1
 258  124  125 1
 259  124  263 1
 260  124  264 1
 261  125  126 1
 262  125  265 1
 263  125  266 1
 264  126  127 1
 265  126  267 1
 266  126  268 1
 267  127  128 1
 268  127  269 1
 269  127  270 1
 270  128  129 1
 271  128  271 1
 272  128  272 1
 273  129  130 1
 274  129  273 1
 275  129  274 1
 276  130  275 1
 277  130  276 1

#	End of record

