#	Name: ASD03430577
#	Creating user name:	WinNT
#	Creation time:	15. 06. 2019 20:41

#	Modifying user name:	WinNT
#	Modification time:	15. 06. 2019 20:41

#	Program:	/corina/corina34_cracker 3.40 0067  02.08.2006

@<TRIPOS>MOLECULE
ASD03430577
  58   63    0    0    0
SMALL
NO_CHARGES


@<TRIPOS>ATOM
   1 N1            -0.0157     1.4931     0.4901 N.am    
   2 C2             0.0409     0.2262     0.9342 C.2     
   3 C3             1.4805    -0.0488     1.3135 C.3     
   4 C4             2.1941     1.2488     1.0117 C.ar    
   5 C5             3.5084     1.6473     1.1361 C.ar    
   6 C6             3.8776     2.9324     0.7702 C.ar    
   7 C7             2.9254     3.8081     0.2822 C.ar    
   8 C8             1.6102     3.4110     0.1577 C.ar    
   9 C9             1.2302     2.1205     0.5227 C.ar    
  10 O10           -0.8869    -0.5507     1.0163 O.2     
  11 O11            1.8756    -1.2719     6.8068 O.3     
  12 C12            2.0719    -2.6453     7.1602 C.3     
  13 C13            3.1727    -3.2207     6.2588 C.3     
  14 O14            2.7452    -3.1008     4.8976 O.3     
  15 C15            2.2187    -1.9012     4.5247 C.ar    
  16 C16            1.7827    -0.9889     5.4787 C.ar    
  17 C17            2.1198    -1.5923     3.1768 C.ar    
  18 C18            1.5860    -0.3808     2.7797 C.ar    
  19 C19            1.1480     0.5296     3.7294 C.ar    
  20 C20            1.2465     0.2254     5.0785 C.ar    
  21 O21            0.6223     1.7209     3.3376 O.3     
  22 O22            2.0138    -1.1101     0.5189 O.3     
  23 F23            4.4341     0.7872     1.6140 F       
  24 C24           -1.2434     2.1395     0.0198 C.3     
  25 C25           -0.9992     2.7579    -1.3326 C.ar    
  26 C26           -1.5151     4.0066    -1.6249 C.ar    
  27 C27           -1.2911     4.5739    -2.8655 C.ar    
  28 C28           -0.5508     3.8927    -3.8135 C.ar    
  29 C29           -0.0340     2.6444    -3.5208 C.ar    
  30 C30           -0.2544     2.0790    -2.2788 C.ar    
  31 C31           -2.3418     1.1133    -0.0881 C.ar    
  32 C32           -3.4804     1.2356     0.6860 C.ar    
  33 C33           -4.4879     0.2943     0.5871 C.ar    
  34 C34           -4.3569    -0.7691    -0.2863 C.ar    
  35 C35           -3.2186    -0.8910    -1.0611 C.ar    
  36 C36           -2.2130     0.0527    -0.9654 C.ar    
  37 H37            4.9057     3.2486     0.8664 H       
  38 H38            3.2130     4.8093    -0.0028 H       
  39 H39            0.8730     4.1017    -0.2241 H       
  40 H40            2.3772    -2.7163     8.2042 H       
  41 H41            1.1457    -3.1998     7.0090 H       
  42 H42            4.0968    -2.6615     6.4045 H       
  43 H43            3.3354    -4.2707     6.5019 H       
  44 H44            2.4601    -2.3001     2.4354 H       
  45 H45            0.9049     0.9345     5.8181 H       
  46 H46           -0.3348     1.7025     3.2009 H       
  47 H47            1.5530    -1.9532     0.6284 H       
  48 H48           -1.5391     2.9153     0.7260 H       
  49 H49           -2.0936     4.5388    -0.8843 H       
  50 H50           -1.6948     5.5491    -3.0941 H       
  51 H51           -0.3764     4.3356    -4.7829 H       
  52 H52            0.5441     2.1121    -4.2616 H       
  53 H53            0.1524     1.1053    -2.0488 H       
  54 H54           -3.5828     2.0665     1.3684 H       
  55 H55           -5.3772     0.3895     1.1924 H       
  56 H56           -5.1437    -1.5049    -0.3631 H       
  57 H57           -3.1161    -1.7220    -1.7433 H       
  58 H58           -1.3253    -0.0405    -1.5734 H       
@<TRIPOS>BOND
   1    1    2 am
   2    1    9 1
   3    1   24 1
   4    2    3 1
   5    2   10 2
   6    3    4 1
   7    3   18 1
   8    3   22 1
   9    4    5 ar
  10    4    9 ar
  11    5    6 ar
  12    5   23 1
  13    6    7 ar
  14    6   37 1
  15    7    8 ar
  16    7   38 1
  17    8    9 ar
  18    8   39 1
  19   11   12 1
  20   11   16 1
  21   12   13 1
  22   12   40 1
  23   12   41 1
  24   13   14 1
  25   13   42 1
  26   13   43 1
  27   14   15 1
  28   15   16 ar
  29   15   17 ar
  30   16   20 ar
  31   17   18 ar
  32   17   44 1
  33   18   19 ar
  34   19   20 ar
  35   19   21 1
  36   20   45 1
  37   21   46 1
  38   22   47 1
  39   24   25 1
  40   24   31 1
  41   24   48 1
  42   25   26 ar
  43   25   30 ar
  44   26   27 ar
  45   26   49 1
  46   27   28 ar
  47   27   50 1
  48   28   29 ar
  49   28   51 1
  50   29   30 ar
  51   29   52 1
  52   30   53 1
  53   31   32 ar
  54   31   36 ar
  55   32   33 ar
  56   32   54 1
  57   33   34 ar
  58   33   55 1
  59   34   35 ar
  60   34   56 1
  61   35   36 ar
  62   35   57 1
  63   36   58 1

#	End of record

