#	Name: ASD03330771
#	Creating user name:	WinNT
#	Creation time:	15. 06. 2019 20:37

#	Modifying user name:	WinNT
#	Modification time:	15. 06. 2019 20:37

#	Program:	/corina/corina34_cracker 3.40 0067  02.08.2006

@<TRIPOS>MOLECULE
ASD03330771
  66   68    0    0    0
SMALL
NO_CHARGES


@<TRIPOS>ATOM
   1 C1            -0.7354     3.4596    -1.7375 C.2     
   2 N2            -1.6203     2.4473    -1.9389 N.pl3   
   3 C3             0.4566     2.8894    -1.4073 C.2     
   4 N4             0.2920     1.5486    -1.4278 N.2     
   5 C5            -0.9499     1.2740    -1.7515 C.2     
   6 C6            -1.5263    -0.0812    -1.8904 C.ar    
   7 C7             1.7031     3.6067    -1.0861 C.2     
   8 O8             1.7265     4.8226    -1.1020 O.2     
   9 C9             4.0827     3.6223    -0.5620 C.3     
  10 N10            2.8173     2.9153    -0.7746 N.am    
  11 C11            4.7119     3.9596    -1.9152 C.3     
  12 C12            5.0224     2.7450     0.2242 C.2     
  13 O13            4.7150     1.5989     0.4751 O.2     
  14 C14           -3.0360     2.6116    -2.2801 C.3     
  15 C15           -3.1643     3.6354    -3.4123 C.3     
  16 C16           -3.2592     5.0412    -2.8282 C.3     
  17 N17           -2.4603     5.1594    -1.6068 N.3     
  18 C18           -1.0333     4.9299    -1.8774 C.3     
  19 C19           -0.7351    -1.1345    -2.3508 C.ar    
  20 C20           -2.8610    -0.3115    -1.5561 C.ar    
  21 C21           -3.3948    -1.5770    -1.6866 C.ar    
  22 C22           -2.6084    -2.6193    -2.1484 C.ar    
  23 C23           -1.2783    -2.3977    -2.4781 C.ar    
  24 C24           -2.6712     6.4632    -0.9639 C.3     
  25 N25            6.2044     3.2339     0.6487 N.am    
  26 C26            7.1666     2.3508     1.3125 C.3     
  27 C27            4.9098     2.6738    -2.7204 C.3     
  28 C28            5.9718     1.8058    -2.0424 C.3     
  29 C29            3.5886     1.9049    -2.7862 C.3     
  30 C30            5.3668     3.0248    -4.1378 C.3     
  31 C31            6.5272     4.6485     0.4462 C.3     
  32 F32           -0.5157    -3.4179    -2.9286 F       
  33 F33           -3.1360    -3.8567    -2.2738 F       
  34 H34            3.8961     4.5426    -0.0086 H       
  35 H35            2.7814     1.9496    -0.6911 H       
  36 H36            4.0544     4.6342    -2.4636 H       
  37 H37            5.6768     4.4415    -1.7572 H       
  38 H38           -3.4456     1.6553    -2.6054 H       
  39 H39           -3.5828     2.9648    -1.4058 H       
  40 H40           -2.2904     3.5705    -4.0605 H       
  41 H41           -4.0618     3.4229    -3.9932 H       
  42 H42           -2.8966     5.7594    -3.5636 H       
  43 H43           -4.3011     5.2628    -2.5968 H       
  44 H44           -0.4318     5.4931    -1.1639 H       
  45 H45           -0.7977     5.2546    -2.8909 H       
  46 H46            0.2997    -0.9620    -2.6074 H       
  47 H47           -3.4756     0.4999    -1.1952 H       
  48 H48           -4.4281    -1.7554    -1.4278 H       
  49 H49           -3.7241     6.5746    -0.7049 H       
  50 H50           -2.0661     6.5244    -0.0593 H       
  51 H51           -2.3798     7.2582    -1.6504 H       
  52 H52            7.8255     1.9056     0.5671 H       
  53 H53            7.7589     2.9275     2.0230 H       
  54 H54            6.6311     1.5623     1.8414 H       
  55 H55            5.5232     1.2701    -1.2058 H       
  56 H56            6.3689     1.0894    -2.7616 H       
  57 H57            6.7798     2.4395    -1.6768 H       
  58 H58            2.7658     2.6072    -2.9197 H       
  59 H59            3.6137     1.2108    -3.6263 H       
  60 H60            3.4452     1.3490    -1.8597 H       
  61 H61            6.3080     3.5725    -4.0909 H       
  62 H62            5.5077     2.1087    -4.7114 H       
  63 H63            4.6102     3.6431    -4.6208 H       
  64 H64            5.6653     5.1601     0.0178 H       
  65 H65            6.7812     5.1039     1.4034 H       
  66 H66            7.3752     4.7340    -0.2333 H       
@<TRIPOS>BOND
   1    1    2 1
   2    1    3 2
   3    1   18 1
   4    2   14 1
   5    2    5 1
   6    3    4 1
   7    3    7 1
   8    4    5 2
   9    5    6 1
  10    6   20 ar
  11    6   19 ar
  12    7    8 2
  13    7   10 am
  14    9   10 1
  15    9   11 1
  16    9   12 1
  17    9   34 1
  18   10   35 1
  19   11   27 1
  20   11   36 1
  21   11   37 1
  22   12   13 2
  23   12   25 am
  24   14   15 1
  25   14   38 1
  26   14   39 1
  27   15   16 1
  28   15   40 1
  29   15   41 1
  30   16   17 1
  31   16   42 1
  32   16   43 1
  33   17   18 1
  34   17   24 1
  35   18   44 1
  36   18   45 1
  37   19   23 ar
  38   19   46 1
  39   20   21 ar
  40   20   47 1
  41   21   22 ar
  42   21   48 1
  43   22   23 ar
  44   22   33 1
  45   23   32 1
  46   24   49 1
  47   24   50 1
  48   24   51 1
  49   25   26 1
  50   25   31 1
  51   26   52 1
  52   26   53 1
  53   26   54 1
  54   27   29 1
  55   27   30 1
  56   27   28 1
  57   28   55 1
  58   28   56 1
  59   28   57 1
  60   29   58 1
  61   29   59 1
  62   29   60 1
  63   30   61 1
  64   30   62 1
  65   30   63 1
  66   31   64 1
  67   31   65 1
  68   31   66 1

#	End of record

