#	Name: ASD01811732
#	Creating user name:	WinNT
#	Creation time:	15. 06. 2019 19:27

#	Modifying user name:	WinNT
#	Modification time:	15. 06. 2019 19:27

#	Program:	/corina/corina34_cracker 3.40 0067  02.08.2006

@<TRIPOS>MOLECULE
ASD01811732
  53   57    0    0    0
SMALL
NO_CHARGES


@<TRIPOS>ATOM
   1 C1            -0.0167     1.3820     0.0096 C.ar    
   2 C2             0.0021    -0.0041     0.0020 C.ar    
   3 C3             1.2092    -0.6837    -0.0132 C.ar    
   4 C4             2.3994     0.0122    -0.0208 C.ar    
   5 C5             2.3881     1.4088    -0.0132 C.ar    
   6 C6             1.1653     2.0846     0.0021 C.ar    
   7 Cl7           -1.4906    -0.8904     0.0121 Cl      
   8 C8             1.2215    -2.1906    -0.0209 C.3     
   9 C9             0.9925    -2.7020     1.3781 C.ar    
  10 C10           -0.2953    -2.9444     1.8210 C.ar    
  11 C11           -0.5106    -3.4132     3.1012 C.ar    
  12 C12            0.5718    -3.6422     3.9477 C.ar    
  13 C13            1.8667    -3.3964     3.4965 C.ar    
  14 C14            2.0711    -2.9326     2.2127 C.ar    
  15 C15            0.3463    -4.1460     5.3258 C.2     
  16 N16           -0.8374    -4.4278     5.8990 N.2     
  17 N17           -0.6285    -4.8397     7.0994 N.2     
  18 N18            0.6314    -4.8484     7.3596 N.pl3   
  19 C19            1.2987    -4.4218     6.2637 C.2     
  20 C20            1.2407    -5.2576     8.6274 C.3     
  21 C21            3.4703     2.4108    -0.0177 C.2     
  22 N22            2.9562     3.6527    -0.0058 N.am    
  23 C23            1.4920     3.5571     0.0074 C.3     
  24 O24            4.6577     2.1507    -0.0297 O.2     
  25 C25            3.7300     4.8967    -0.0053 C.3     
  26 C26            3.9862     5.3385    -1.4475 C.3     
  27 O27            2.7491     5.7015    -2.0715 O.3     
  28 C28            2.7771     7.0878    -2.4468 C.3     
  29 C29            4.2792     7.4346    -2.6023 C.3     
  30 C30            4.8979     6.5843    -1.4595 C.3     
  31 H31           -0.9590     1.9097     0.0170 H       
  32 H32            3.3383    -0.5214    -0.0323 H       
  33 H33            0.4308    -2.5570    -0.6756 H       
  34 H34            2.1866    -2.5442    -0.3835 H       
  35 H35           -1.1338    -2.7662     1.1640 H       
  36 H36           -1.5165    -3.6019     3.4461 H       
  37 H37            2.7094    -3.5722     4.1487 H       
  38 H38            3.0746    -2.7420     1.8617 H       
  39 H39            2.3678    -4.3144     6.1550 H       
  40 H40            1.4564    -6.3257     8.5989 H       
  41 H41            2.1670    -4.7039     8.7808 H       
  42 H42            0.5522    -5.0478     9.4459 H       
  43 H43            1.0773     4.0360    -0.8796 H       
  44 H44            1.0941     4.0259     0.9074 H       
  45 H45            3.1711     5.6721     0.5185 H       
  46 H46            4.6823     4.7319     0.4988 H       
  47 H47            4.4574     4.5285    -2.0041 H       
  48 H48            2.2550     7.2344    -3.3923 H       
  49 H49            2.3263     7.7003    -1.6659 H       
  50 H50            4.6565     7.1192    -3.5751 H       
  51 H51            4.4557     8.4980    -2.4406 H       
  52 H52            4.8432     7.1142    -0.5085 H       
  53 H53            5.9266     6.3100    -1.6933 H       
@<TRIPOS>BOND
   1    1    2 ar
   2    1    6 ar
   3    1   31 1
   4    2    3 ar
   5    2    7 1
   6    3    4 ar
   7    3    8 1
   8    4    5 ar
   9    4   32 1
  10    5    6 ar
  11    5   21 1
  12    6   23 1
  13    8    9 1
  14    8   33 1
  15    8   34 1
  16    9   10 ar
  17    9   14 ar
  18   10   11 ar
  19   10   35 1
  20   11   12 ar
  21   11   36 1
  22   12   13 ar
  23   12   15 1
  24   13   14 ar
  25   13   37 1
  26   14   38 1
  27   15   16 1
  28   15   19 2
  29   16   17 2
  30   17   18 1
  31   18   19 1
  32   18   20 1
  33   19   39 1
  34   20   40 1
  35   20   41 1
  36   20   42 1
  37   21   22 am
  38   21   24 2
  39   22   23 1
  40   22   25 1
  41   23   43 1
  42   23   44 1
  43   25   26 1
  44   25   45 1
  45   25   46 1
  46   26   27 1
  47   26   30 1
  48   26   47 1
  49   27   28 1
  50   28   29 1
  51   28   48 1
  52   28   49 1
  53   29   30 1
  54   29   50 1
  55   29   51 1
  56   30   52 1
  57   30   53 1

#	End of record

