#	Name: ASD03091756
#	Creating user name:	WinNT
#	Creation time:	15. 06. 2019 20:31

#	Modifying user name:	WinNT
#	Modification time:	15. 06. 2019 20:31

#	Program:	/corina/corina34_cracker 3.40 0067  02.08.2006

@<TRIPOS>MOLECULE
ASD03091756
  35   37    0    0    0
SMALL
NO_CHARGES


@<TRIPOS>ATOM
   1 C1             0.0392     1.7122    -0.0461 C.3     
   2 C2            -0.0051     0.1841    -0.1118 C.3     
   3 N3             0.6477    -0.3775     1.0776 N.3     
   4 C4            -0.0517     0.0230     2.3052 C.3     
   5 C5            -0.0093     1.5461     2.4449 C.3     
   6 C6             1.4500     2.0078     2.5204 C.3     
   7 N7             2.1100     1.6972     1.2450 N.am    
   8 C8             1.4993     2.1755    -0.0028 C.3     
   9 C9            -0.6755     2.1858     1.2230 C.3     
  10 C10            3.2546     0.9861     1.2201 C.2     
  11 O11            3.8109     0.6919     2.2617 O.2     
  12 O12            3.2470     0.6953    -1.2722 O.3     
  13 C13            3.8297     0.5669    -0.0623 C.2     
  14 C14            5.0489    -0.0213    -0.2408 C.2     
  15 C15            5.1892    -0.2490    -1.6187 C.2     
  16 C16            4.0637     0.2045    -2.2133 C.2     
  17 C17            6.0502    -0.3599     0.8334 C.3     
  18 H18           -0.4506     2.1299    -0.9257 H       
  19 H19           -1.0427    -0.1479    -0.1474 H       
  20 H20            0.5158    -0.1562    -1.0068 H       
  21 H21            0.7165    -1.3820     1.0120 H       
  22 H22           -1.0889    -0.3085     2.2567 H       
  23 H23            0.4355    -0.4343     3.1663 H       
  24 H24           -0.5342     1.8444     3.3524 H       
  25 H25            1.4845     3.0827     2.6976 H       
  26 H26            1.9572     1.4850     3.3313 H       
  27 H27            2.0390     1.7632    -0.8553 H       
  28 H28            1.5383     3.2644    -0.0348 H       
  29 H29           -0.6057     3.2711     1.2968 H       
  30 H30           -1.7236     1.8894     1.1829 H       
  31 H31            6.0374    -0.7013    -2.1111 H       
  32 H32            3.8567     0.1755    -3.2729 H       
  33 H33            5.8607    -1.3681     1.2020 H       
  34 H34            7.0576    -0.3074     0.4206 H       
  35 H35            5.9565     0.3507     1.6545 H       
@<TRIPOS>BOND
   1    1    2 1
   2    1    8 1
   3    1    9 1
   4    1   18 1
   5    2    3 1
   6    2   19 1
   7    2   20 1
   8    3    4 1
   9    3   21 1
  10    4    5 1
  11    4   22 1
  12    4   23 1
  13    5    6 1
  14    5    9 1
  15    5   24 1
  16    6    7 1
  17    6   25 1
  18    6   26 1
  19    7    8 1
  20    7   10 am
  21    8   27 1
  22    8   28 1
  23    9   29 1
  24    9   30 1
  25   10   11 2
  26   10   13 1
  27   12   13 1
  28   12   16 1
  29   13   14 2
  30   14   15 1
  31   14   17 1
  32   15   16 2
  33   15   31 1
  34   16   32 1
  35   17   33 1
  36   17   34 1
  37   17   35 1

#	End of record

