#	Name: ASD04590760
#	Creating user name:	WinNT
#	Creation time:	15. 06. 2019 20:51

#	Modifying user name:	WinNT
#	Modification time:	15. 06. 2019 20:51

#	Program:	/corina/corina34_cracker 3.40 0067  02.08.2006

@<TRIPOS>MOLECULE
ASD04590760
  37   40    0    0    0
SMALL
NO_CHARGES


@<TRIPOS>ATOM
   1 N1            -0.0159     1.3203     0.0093 N.ar    
   2 C2             0.0021    -0.0041     0.0020 C.ar    
   3 N3             1.1361    -0.6890    -0.0121 N.ar    
   4 C4             2.3032    -0.0593    -0.0197 C.ar    
   5 C5             2.3195     1.3431    -0.0132 C.ar    
   6 C6             1.1107     2.0189     0.0023 C.ar    
   7 N7             3.6185    -0.4923    -0.0345 N.pl3   
   8 C8             4.4357     0.6050    -0.0255 C.2     
   9 N9             3.6493     1.7381    -0.0270 N.pl3   
  10 C10            4.0602    -1.8890    -0.0552 C.3     
  11 C11            3.5383    -2.6255     1.1909 C.3     
  12 C12            2.6413    -3.7726     0.6814 C.3     
  13 C13            3.1461    -4.0386    -0.7585 C.3     
  14 C14            3.4623    -2.6142    -1.2785 C.3     
  15 N15           -1.2006    -0.6935     0.0099 N.pl3   
  16 N16            5.7422     0.6429    -0.0231 N.2     
  17 C17            6.4246     1.9398     0.0256 C.3     
  18 C18            5.5986     3.0077    -0.6931 C.3     
  19 C19            4.2054     3.0962    -0.0516 C.3     
  20 H20            1.0864     3.0986     0.0082 H       
  21 H21            5.1487    -1.9356    -0.0879 H       
  22 H22            4.3734    -3.0303     1.7625 H       
  23 H23            2.9563    -1.9438     1.8111 H       
  24 H24            2.7691    -4.6605     1.3006 H       
  25 H25            1.5964    -3.4627     0.6682 H       
  26 H26            4.0461    -4.6534    -0.7450 H       
  27 H27            2.3669    -4.5056    -1.3609 H       
  28 H28            2.5499    -2.1173    -1.6082 H       
  29 H29            4.1891    -2.6568    -2.0896 H       
  30 H30           -2.0391    -0.2060     0.0206 H       
  31 H31           -1.2036    -1.6635     0.0047 H       
  32 H32            6.5651     2.2335     1.0659 H       
  33 H33            7.3979     1.8525    -0.4574 H       
  34 H34            6.0994     3.9722    -0.6086 H       
  35 H35            5.4978     2.7418    -1.7453 H       
  36 H36            3.5647     3.7486    -0.6448 H       
  37 H37            4.2889     3.4812     0.9647 H       
@<TRIPOS>BOND
   1    1    2 ar
   2    1    6 ar
   3    2    3 ar
   4    2   15 1
   5    3    4 ar
   6    4    5 ar
   7    4    7 1
   8    5    6 ar
   9    5    9 1
  10    6   20 1
  11    7    8 1
  12    7   10 1
  13    8    9 1
  14    8   16 2
  15    9   19 1
  16   10   11 1
  17   10   14 1
  18   10   21 1
  19   11   12 1
  20   11   22 1
  21   11   23 1
  22   12   13 1
  23   12   24 1
  24   12   25 1
  25   13   14 1
  26   13   26 1
  27   13   27 1
  28   14   28 1
  29   14   29 1
  30   15   30 1
  31   15   31 1
  32   16   17 1
  33   17   18 1
  34   17   32 1
  35   17   33 1
  36   18   19 1
  37   18   34 1
  38   18   35 1
  39   19   36 1
  40   19   37 1

#	End of record

