#	Name: ASD04881283
#	Creating user name:	WinNT
#	Creation time:	15. 06. 2019 20:53

#	Modifying user name:	WinNT
#	Modification time:	15. 06. 2019 20:53

#	Program:	/corina/corina34_cracker 3.40 0067  02.08.2006

@<TRIPOS>MOLECULE
ASD04881283
  79   84    0    0    0
SMALL
NO_CHARGES


@<TRIPOS>ATOM
   1 C1             0.2645     1.2443    -1.1297 C.2     
   2 C2             1.4210     1.7057    -0.5801 C.2     
   3 C3             1.9041     3.0982    -0.5970 C.2     
   4 O4             1.2460     3.9636    -1.1422 O.2     
   5 N5             2.0472     0.6396    -0.0119 N.2     
   6 C6             1.3157    -0.4172    -0.2024 C.2     
   7 O7             0.2146    -0.0752    -0.8862 O.3     
   8 N8             3.0751     3.4124    -0.0085 N.am    
   9 C9             3.5752     4.7183    -0.0964 C.ar    
  10 C10            4.9501     4.9493     0.0064 C.ar    
  11 C11            5.4476     6.2441    -0.0811 C.ar    
  12 C12            4.5882     7.3043    -0.2689 C.ar    
  13 C13            3.2129     7.0804    -0.3725 C.ar    
  14 C14            2.7104     5.7783    -0.2905 C.ar    
  15 C15            2.2927     8.2159    -0.5732 C.2     
  16 O16            1.0960     8.0202    -0.6632 O.2     
  17 N17            2.7785     9.4703    -0.6567 N.am    
  18 N18            5.8224     3.8808     0.1973 N.3     
  19 C19            6.7910     3.7893    -0.9026 C.3     
  20 C20            7.6361     2.5243    -0.7360 C.3     
  21 C21            8.3662     2.5777     0.6089 C.3     
  22 C22            7.3375     2.7216     1.7339 C.3     
  23 C23            6.5011     3.9808     1.4956 C.3     
  24 C24            1.8647    10.5980    -0.8560 C.3     
  25 C25            2.6665    11.8997    -0.9154 C.3     
  26 C26            1.7122    13.0774    -1.1235 C.3     
  27 C27            1.6521    -1.8080     0.2705 C.3     
  28 C28            0.6709    -2.4848     1.2297 C.3     
  29 C29            0.7681    -2.9551    -0.2229 C.3     
  30 C30            9.1531     1.3076     0.8055 C.ar    
  31 C31           10.3196     1.3249     1.5471 C.ar    
  32 C32           11.0414     0.1599     1.7274 C.ar    
  33 C33           10.5965    -1.0227     1.1665 C.ar    
  34 C34            9.4295    -1.0402     0.4256 C.ar    
  35 C35            8.7054     0.1240     0.2490 C.ar    
  36 N36            2.4799    14.3238    -1.1803 N.am    
  37 O37            9.2532     3.6980     0.6267 O.3     
  38 C38            3.0242    14.9057    -2.4128 C.3     
  39 C39            4.0887    15.9258    -1.9519 C.3     
  40 C40            3.5870    16.2863    -0.5343 C.3     
  41 C41            2.7713    15.0845    -0.1111 C.2     
  42 O42            2.4318    14.8414     1.0276 O.2     
  43 H43           -0.4746     1.8290    -1.6571 H       
  44 H44            3.5717     2.7345     0.4760 H       
  45 H45            6.5103     6.4195    -0.0013 H       
  46 H46            4.9778     8.3093    -0.3358 H       
  47 H47            1.6483     5.6017    -0.3747 H       
  48 H48            3.7331     9.6265    -0.5849 H       
  49 H49            6.2587     3.7478    -1.8529 H       
  50 H50            7.4406     4.6645    -0.8883 H       
  51 H51            6.9887     1.6479    -0.7641 H       
  52 H52            8.3654     2.4648    -1.5438 H       
  53 H53            6.6854     1.8482     1.7446 H       
  54 H54            7.8534     2.8031     2.6906 H       
  55 H55            7.1520     4.8552     1.4987 H       
  56 H56            5.7581     4.0785     2.2872 H       
  57 H57            1.3203    10.4636    -1.7907 H       
  58 H58            1.1581    10.6439    -0.0274 H       
  59 H59            3.2109    12.0341     0.0193 H       
  60 H60            3.3731    11.8538    -1.7440 H       
  61 H61            1.1678    12.9431    -2.0582 H       
  62 H62            1.0056    13.1233    -0.2948 H       
  63 H63            2.7136    -2.0137     0.4084 H       
  64 H64            1.0868    -3.1360     1.9985 H       
  65 H65           -0.2180    -1.9240     1.5188 H       
  66 H66           -0.0569    -2.7039    -0.8896 H       
  67 H67            1.2479    -3.9158    -0.4098 H       
  68 H68           10.6672     2.2488     1.9853 H       
  69 H69           11.9531     0.1736     2.3061 H       
  70 H70           11.1608    -1.9328     1.3067 H       
  71 H71            9.0821    -1.9640    -0.0129 H       
  72 H72            7.7918     0.1096    -0.3267 H       
  73 H73            9.7498     3.7934     1.4509 H       
  74 H74            3.4850    14.1302    -3.0246 H       
  75 H75            2.2360    15.4098    -2.9721 H       
  76 H76            5.0767    15.4672    -1.9111 H       
  77 H77            4.0941    16.8032    -2.5986 H       
  78 H78            4.4289    16.4366     0.1415 H       
  79 H79            2.9590    17.1765    -0.5668 H       
@<TRIPOS>BOND
   1    1    7 1
   2    1    2 2
   3    1   43 1
   4    2    3 1
   5    2    5 1
   6    3    4 2
   7    3    8 am
   8    5    6 2
   9    6    7 1
  10    6   27 1
  11    8    9 1
  12    8   44 1
  13    9   10 ar
  14    9   14 ar
  15   10   11 ar
  16   10   18 1
  17   11   12 ar
  18   11   45 1
  19   12   13 ar
  20   12   46 1
  21   13   14 ar
  22   13   15 1
  23   14   47 1
  24   15   16 2
  25   15   17 am
  26   17   24 1
  27   17   48 1
  28   18   19 1
  29   18   23 1
  30   19   20 1
  31   19   49 1
  32   19   50 1
  33   20   21 1
  34   20   51 1
  35   20   52 1
  36   21   22 1
  37   21   30 1
  38   21   37 1
  39   22   23 1
  40   22   53 1
  41   22   54 1
  42   23   55 1
  43   23   56 1
  44   24   25 1
  45   24   57 1
  46   24   58 1
  47   25   26 1
  48   25   59 1
  49   25   60 1
  50   26   36 1
  51   26   61 1
  52   26   62 1
  53   27   28 1
  54   27   29 1
  55   27   63 1
  56   28   29 1
  57   28   64 1
  58   28   65 1
  59   29   66 1
  60   29   67 1
  61   30   31 ar
  62   30   35 ar
  63   31   32 ar
  64   31   68 1
  65   32   33 ar
  66   32   69 1
  67   33   34 ar
  68   33   70 1
  69   34   35 ar
  70   34   71 1
  71   35   72 1
  72   36   38 1
  73   36   41 am
  74   37   73 1
  75   38   39 1
  76   38   74 1
  77   38   75 1
  78   39   40 1
  79   39   76 1
  80   39   77 1
  81   40   41 1
  82   40   78 1
  83   40   79 1
  84   41   42 2

#	End of record

