#	Name: ASD00122089
#	Creating user name:	WinNT
#	Creation time:	15. 06. 2019 18:31

#	Modifying user name:	WinNT
#	Modification time:	15. 06. 2019 18:31

#	Program:	/corina/corina34_cracker 3.40 0067  02.08.2006

@<TRIPOS>MOLECULE
ASD00122089
  20   21    0    0    0
SMALL
NO_CHARGES


@<TRIPOS>ATOM
   1 C1            -0.0169     1.3928     0.0097 C.ar    
   2 C2             0.0021    -0.0041     0.0020 C.ar    
   3 N3            -1.1593    -0.6715     0.0099 N.ar    
   4 C4            -2.3067    -0.0340     0.0247 C.ar    
   5 N5            -2.3789     1.2848     0.0320 N.ar    
   6 C6            -1.2842     2.0319     0.0306 C.ar    
   7 C7             1.3203     1.9547    -0.0001 C.2     
   8 C8             2.2944     1.0653    -0.0141 C.2     
   9 S9             1.6653    -0.5716    -0.0169 S.3     
  10 S10           -1.4002     3.7900     0.0412 S.3     
  11 C11            3.7610     1.4118    -0.0270 C.3     
  12 C12           -3.1995     3.9863     0.0515 C.3     
  13 H13           -3.2222    -0.6070     0.0306 H       
  14 H14            1.5043     3.0189     0.0036 H       
  15 H15            4.1248     1.4903     0.9975 H       
  16 H16            4.3140     0.6317    -0.5502 H       
  17 H17            3.9049     2.3639    -0.5377 H       
  18 H18           -3.6210     3.5199    -0.8390 H       
  19 H19           -3.6119     3.5099     0.9410 H       
  20 H20           -3.4493     5.0473     0.0588 H       
@<TRIPOS>BOND
   1    1    2 ar
   2    1    7 1
   3    1    6 ar
   4    2    3 ar
   5    2    9 1
   6    3    4 ar
   7    4    5 ar
   8    4   13 1
   9    5    6 ar
  10    6   10 1
  11    7    8 2
  12    7   14 1
  13    8    9 1
  14    8   11 1
  15   10   12 1
  16   11   15 1
  17   11   16 1
  18   11   17 1
  19   12   18 1
  20   12   19 1
  21   12   20 1

#	End of record

