#	Name: ASD01884689
#	Creating user name:	WinNT
#	Creation time:	15. 06. 2019 19:48

#	Modifying user name:	WinNT
#	Modification time:	15. 06. 2019 19:48

#	Program:	/corina/corina34_cracker 3.40 0067  02.08.2006

@<TRIPOS>MOLECULE
ASD01884689
  42   44    0    0    0
SMALL
NO_CHARGES


@<TRIPOS>ATOM
   1 C1            -0.0164     1.3598     0.0095 C.2     
   2 C2             0.0021    -0.0041     0.0020 C.2     
   3 C3             1.2342    -0.6727    -0.0133 C.2     
   4 C4             2.3874     0.0358    -0.0205 C.2     
   5 N5             2.3670     1.3933    -0.0126 N.am    
   6 C6             1.1996     2.0643     0.0017 C.2     
   7 O7             1.1975     3.2849     0.0083 O.2     
   8 C8             1.2747    -2.1791    -0.0213 C.3     
   9 C9             3.6294     2.1366    -0.0197 C.3     
  10 C10            4.0495     2.3996    -1.4429 C.ar    
  11 C11            3.4737     3.4386    -2.1538 C.ar    
  12 C12            3.8603     3.6796    -3.4614 C.ar    
  13 C13            4.8211     2.8820    -4.0556 C.ar    
  14 C14            5.3956     1.8438    -3.3435 C.ar    
  15 C15            5.0138     1.6069    -2.0365 C.ar    
  16 C16            1.1781    -2.6917     1.3925 C.ar    
  17 C17           -0.0640    -2.8610     1.9862 C.ar    
  18 Cl18           5.3062     3.1828    -5.6951 Cl      
  19 F19            2.5349     4.2168    -1.5723 F       
  20 C20           -0.1495    -3.3336     3.2880 C.ar    
  21 C21            1.0017    -3.6343     3.9894 C.ar    
  22 C22            2.2389    -3.4643     3.3954 C.ar    
  23 C23            2.3266    -2.9989     2.0965 C.ar    
  24 O24           -1.1953    -2.5640     1.2943 O.3     
  25 C25           -2.4394    -2.7627     1.9687 C.3     
  26 H26           -0.9557     1.8927     0.0169 H       
  27 H27           -0.9222    -0.5627     0.0082 H       
  28 H28            3.3339    -0.4842    -0.0324 H       
  29 H29            0.4372    -2.5620    -0.6046 H       
  30 H30            2.2112    -2.5151    -0.4665 H       
  31 H31            3.4957     3.0849     0.5008 H       
  32 H32            4.3986     1.5511     0.4839 H       
  33 H33            3.4115     4.4897    -4.0170 H       
  34 H34            6.1460     1.2211    -3.8079 H       
  35 H35            5.4628     0.7964    -1.4816 H       
  36 H36           -1.1155    -3.4658     3.7526 H       
  37 H37            0.9357    -4.0022     5.0026 H       
  38 H38            3.1380    -3.6993     3.9457 H       
  39 H39            3.2940    -2.8670     1.6348 H       
  40 H40           -3.2599    -2.4883     1.3058 H       
  41 H41           -2.5358    -3.8109     2.2517 H       
  42 H42           -2.4712    -2.1404     2.8631 H       
@<TRIPOS>BOND
   1    1    2 2
   2    1    6 1
   3    1   26 1
   4    2    3 1
   5    2   27 1
   6    3    4 2
   7    3    8 1
   8    4    5 1
   9    4   28 1
  10    5    6 am
  11    5    9 1
  12    6    7 2
  13    8   16 1
  14    8   29 1
  15    8   30 1
  16    9   10 1
  17    9   31 1
  18    9   32 1
  19   10   11 ar
  20   10   15 ar
  21   11   12 ar
  22   11   19 1
  23   12   13 ar
  24   12   33 1
  25   13   14 ar
  26   13   18 1
  27   14   15 ar
  28   14   34 1
  29   15   35 1
  30   16   17 ar
  31   16   23 ar
  32   17   20 ar
  33   17   24 1
  34   20   21 ar
  35   20   36 1
  36   21   22 ar
  37   21   37 1
  38   22   23 ar
  39   22   38 1
  40   23   39 1
  41   24   25 1
  42   25   40 1
  43   25   41 1
  44   25   42 1

#	End of record

