#	Name: ASD02038015
#	Creating user name:	WinNT
#	Creation time:	15. 06. 2019 20:16

#	Modifying user name:	WinNT
#	Modification time:	15. 06. 2019 20:16

#	Program:	/corina/corina34_cracker 3.40 0067  02.08.2006

@<TRIPOS>MOLECULE
ASD02038015
  49   52    0    0    0
SMALL
NO_CHARGES


@<TRIPOS>ATOM
   1 C1            -0.0184     1.5028     0.0103 C.3     
   2 O2             1.3438     2.0054    -0.0000 O.3     
   3 C3             3.3105     5.2301    -0.0015 C.3     
   4 N4             2.7404     3.8744    -0.0033 N.am    
   5 C5             1.5021     3.3424     0.0057 C.2     
   6 C6             5.8742     5.2229    -0.2255 C.3     
   7 O7             6.9364     4.7098    -1.0320 O.3     
   8 C8             8.1966     5.1189    -0.7263 C.ar    
   9 C9             9.2741     4.6592    -1.4692 C.ar    
  10 C10            8.4036     6.0005     0.3248 C.ar    
  11 C11            9.6827     6.4173     0.6355 C.ar    
  12 C12           10.7622     5.9533    -0.1043 C.ar    
  13 C13           10.5537     5.0747    -1.1590 C.ar    
  14 N14           12.0610     6.3734     0.2080 N.am    
  15 C15           13.0537     6.2451    -0.6913 C.2     
  16 C16           12.7871     5.6665    -2.0548 C.3     
  17 C17           11.7271     4.5722    -1.9594 C.3     
  18 O18            0.5286     4.0694     0.0189 O.2     
  19 O19           14.1763     6.6001    -0.3998 O.2     
  20 C20            4.1161     3.3548    -0.0201 C.3     
  21 C21            4.5410     4.6551    -0.7165 C.3     
  22 C22            0.0021    -0.0041     0.0020 C.ar    
  23 C23            0.0229    -0.7013     1.1958 C.ar    
  24 C24           -0.0057    -0.6883    -1.1988 C.ar    
  25 C25            0.0131    -2.0716    -1.2068 C.ar    
  26 C26            0.0396    -2.7697    -0.0116 C.ar    
  27 C27            0.0416    -2.0833     1.1896 C.ar    
  28 Cl28           0.0027    -2.9315    -2.7149 Cl      
  29 Cl29           0.0631    -4.5055    -0.0200 Cl      
  30 H30           -0.5286     1.8543     0.9071 H       
  31 H31           -0.5455     1.8639    -0.8728 H       
  32 H32            2.7473     5.9387    -0.6088 H       
  33 H33            3.5265     5.6088     0.9976 H       
  34 H34            6.0330     4.9314     0.8127 H       
  35 H35            5.8550     6.3103    -0.2987 H       
  36 H36            9.1121     3.9760    -2.2899 H       
  37 H37            7.5637     6.3611     0.9002 H       
  38 H38            9.8435     7.1042     1.4532 H       
  39 H39           12.2462     6.7598     1.0782 H       
  40 H40           12.4314     6.4542    -2.7190 H       
  41 H41           13.7089     5.2453    -2.4560 H       
  42 H42           12.1520     3.6970    -1.4678 H       
  43 H43           11.3948     4.3002    -2.9612 H       
  44 H44            4.5467     3.2340     0.9739 H       
  45 H45            4.2379     2.4688    -0.6433 H       
  46 H46            4.4551     4.6290    -1.8028 H       
  47 H47            0.0248    -0.1658     2.1336 H       
  48 H48           -0.0268    -0.1430    -2.1308 H       
  49 H49            0.0623    -2.6272     2.1224 H       
@<TRIPOS>BOND
   1    1   22 1
   2    1    2 1
   3    1   30 1
   4    1   31 1
   5    2    5 1
   6    3    4 1
   7    3   21 1
   8    3   32 1
   9    3   33 1
  10    4    5 am
  11    4   20 1
  12    5   18 2
  13    6    7 1
  14    6   21 1
  15    6   34 1
  16    6   35 1
  17    7    8 1
  18    8    9 ar
  19    8   10 ar
  20    9   13 ar
  21    9   36 1
  22   10   11 ar
  23   10   37 1
  24   11   12 ar
  25   11   38 1
  26   12   13 ar
  27   12   14 1
  28   13   17 1
  29   14   15 am
  30   14   39 1
  31   15   16 1
  32   15   19 2
  33   16   17 1
  34   16   40 1
  35   16   41 1
  36   17   42 1
  37   17   43 1
  38   20   21 1
  39   20   44 1
  40   20   45 1
  41   21   46 1
  42   22   23 ar
  43   22   24 ar
  44   23   27 ar
  45   23   47 1
  46   24   25 ar
  47   24   48 1
  48   25   26 ar
  49   25   28 1
  50   26   27 ar
  51   26   29 1
  52   27   49 1

#	End of record

