#	Name: ASD02039340
#	Creating user name:	WinNT
#	Creation time:	15. 06. 2019 20:18

#	Modifying user name:	WinNT
#	Modification time:	15. 06. 2019 20:18

#	Program:	/corina/corina34_cracker 3.40 0067  02.08.2006

@<TRIPOS>MOLECULE
ASD02039340
  45   47    0    0    0
SMALL
NO_CHARGES


@<TRIPOS>ATOM
   1 C1             0.1315     1.1812    -0.3266 C.ar    
   2 C2             0.5097    -0.0976     0.0379 C.ar    
   3 C3            -0.3982    -1.1381    -0.0360 C.ar    
   4 C4            -2.0738     0.3864    -0.8307 C.ar    
   5 C5            -1.1573     1.4258    -0.7606 C.ar    
   6 N6            -3.3825     0.6317    -1.2712 N.pl3   
   7 C7             1.1249     2.3115    -0.2446 C.3     
   8 N8             1.9435     2.3313    -1.4594 N.am    
   9 C9             1.4534     3.0092    -2.6621 C.3     
  10 C10            3.1475     1.7257    -1.4706 C.2     
  11 C11            3.5956     0.9555    -0.2974 C.2     
  12 C12            4.7272     0.1982    -0.2142 C.2     
  13 N13            2.9606     0.8747     0.8998 N.2     
  14 C14            3.6506     0.1053     1.6912 C.2     
  15 N15            4.7543    -0.3323     1.0311 N.pl3   
  16 O16            3.8642     1.8152    -2.4492 O.2     
  17 C17            5.7880    -1.2196     1.5698 C.3     
  18 C18           -4.3686    -0.2861    -1.3862 C.2     
  19 C19           -1.6881    -0.9015    -0.4749 C.ar    
  20 C20            2.4391     4.1074    -3.0660 C.3     
  21 C21            1.3234     1.9963    -3.8014 C.3     
  22 F22           -2.5752    -1.9179    -0.5477 F       
  23 N23           -3.9011     1.8723    -1.6644 N.2     
  24 C24           -5.1525     1.7022    -2.0083 C.2     
  25 C25           -5.4724     0.3504    -1.8423 C.2     
  26 H26            1.5166    -0.2845     0.3809 H       
  27 H27           -0.0995    -2.1362     0.2488 H       
  28 H28           -1.4538     2.4271    -1.0359 H       
  29 H29            0.5918     3.2576    -0.1503 H       
  30 H30            1.7674     2.1683     0.6242 H       
  31 H31            0.4790     3.4529    -2.4574 H       
  32 H32            5.4609     0.0499    -0.9927 H       
  33 H33            3.3894    -0.1426     2.7094 H       
  34 H34            5.5189    -2.2562     1.3668 H       
  35 H35            6.7437    -0.9931     1.0972 H       
  36 H36            5.8705    -1.0698     2.6463 H       
  37 H37           -4.2896    -1.3382    -1.1557 H       
  38 H38            3.4292     3.6735    -3.2059 H       
  39 H39            2.1091     4.5673    -3.9975 H       
  40 H40            2.4814     4.8639    -2.2824 H       
  41 H41            0.5874     1.2389    -3.5319 H       
  42 H42            1.0022     2.5087    -4.7082 H       
  43 H43            2.2881     1.5198    -3.9756 H       
  44 H44           -5.8235     2.4733    -2.3569 H       
  45 H45           -6.4312    -0.1048    -2.0425 H       
@<TRIPOS>BOND
   1    1    2 ar
   2    1    7 1
   3    1    5 ar
   4    2    3 ar
   5    2   26 1
   6    3   19 ar
   7    3   27 1
   8    4    5 ar
   9    4    6 1
  10    4   19 ar
  11    5   28 1
  12    6   18 1
  13    6   23 1
  14    7    8 1
  15    7   29 1
  16    7   30 1
  17    8    9 1
  18    8   10 am
  19    9   21 1
  20    9   20 1
  21    9   31 1
  22   10   11 1
  23   10   16 2
  24   11   12 2
  25   11   13 1
  26   12   15 1
  27   12   32 1
  28   13   14 2
  29   14   15 1
  30   14   33 1
  31   15   17 1
  32   17   34 1
  33   17   35 1
  34   17   36 1
  35   18   25 2
  36   18   37 1
  37   19   22 1
  38   20   38 1
  39   20   39 1
  40   20   40 1
  41   21   41 1
  42   21   42 1
  43   21   43 1
  44   23   24 2
  45   24   25 1
  46   24   44 1
  47   25   45 1

#	End of record

