#	Name: ASD01913788
#	Creating user name:	WinNT
#	Creation time:	15. 06. 2019 20:02

#	Modifying user name:	WinNT
#	Modification time:	15. 06. 2019 20:02

#	Program:	/corina/corina34_cracker 3.40 0067  02.08.2006

@<TRIPOS>MOLECULE
ASD01913788
  41   43    0    0    0
SMALL
NO_CHARGES


@<TRIPOS>ATOM
   1 C1            -0.0096     1.3646    -0.1775 C.ar    
   2 C2            -0.0011     0.0026     0.0671 C.ar    
   3 C3             1.1929    -0.6594     0.2927 C.ar    
   4 C4             2.3844     0.0351     0.2752 C.ar    
   5 C5             2.3837     1.4106     0.0285 C.ar    
   6 C6             1.1740     2.0722    -0.1984 C.ar    
   7 C7             3.6167     2.1386     0.0093 C.1     
   8 C8             4.6275     2.7355    -0.0065 C.1     
   9 C9             5.8604     3.4636    -0.0258 C.ar    
  10 C10            5.8682     4.8446    -0.2727 C.ar    
  11 C11            8.2483     4.7809    -0.0454 C.ar    
  12 N12            8.2080     3.4781     0.1901 N.ar    
  13 C13            7.0730     2.8107     0.2068 C.ar    
  14 C14            7.0818     5.5024    -0.2806 C.ar    
  15 N15            9.4756     5.4395    -0.0519 N.am    
  16 C16            9.6193     6.7760    -0.0461 C.2     
  17 C17           11.0871     7.1416    -0.0661 C.3     
  18 C18           11.7963     5.8393    -0.5043 C.3     
  19 C19           10.7782     4.7633    -0.0597 C.3     
  20 O20            8.7052     7.5727    -0.0278 O.2     
  21 C21           12.0035     5.8119    -2.0200 C.3     
  22 C22           13.1267     5.6661     0.2312 C.3     
  23 O23           11.3296     8.1855    -1.0114 O.3     
  24 H24           -0.9450     1.8738    -0.3568 H       
  25 H25           -0.9311    -0.5464     0.0823 H       
  26 H26            1.1918    -1.7225     0.4832 H       
  27 H27            3.3155    -0.4828     0.4522 H       
  28 H28            1.1659     3.1351    -0.3898 H       
  29 H29            4.9475     5.3798    -0.4526 H       
  30 H30            7.0798     1.7486     0.4026 H       
  31 H31            7.1255     6.5652    -0.4676 H       
  32 H32           11.4193     7.4410     0.9279 H       
  33 H33           11.0264     4.3981     0.9369 H       
  34 H34           10.7657     3.9385    -0.7722 H       
  35 H35           12.6386     6.6472    -2.3150 H       
  36 H36           12.4808     4.8742    -2.3046 H       
  37 H37           11.0385     5.8949    -2.5201 H       
  38 H38           12.9477     5.6471     1.3062 H       
  39 H39           13.5927     4.7299    -0.0762 H       
  40 H40           13.7875     6.4981    -0.0124 H       
  41 H41           10.8615     9.0089    -0.8167 H       
@<TRIPOS>BOND
   1    1    2 ar
   2    1    6 ar
   3    1   24 1
   4    2    3 ar
   5    2   25 1
   6    3    4 ar
   7    3   26 1
   8    4    5 ar
   9    4   27 1
  10    5    6 ar
  11    5    7 1
  12    6   28 1
  13    7    8 3
  14    8    9 1
  15    9   10 ar
  16    9   13 ar
  17   10   14 ar
  18   10   29 1
  19   11   12 ar
  20   11   15 1
  21   11   14 ar
  22   12   13 ar
  23   13   30 1
  24   14   31 1
  25   15   16 am
  26   15   19 1
  27   16   17 1
  28   16   20 2
  29   17   18 1
  30   17   23 1
  31   17   32 1
  32   18   19 1
  33   18   21 1
  34   18   22 1
  35   19   33 1
  36   19   34 1
  37   21   35 1
  38   21   36 1
  39   21   37 1
  40   22   38 1
  41   22   39 1
  42   22   40 1
  43   23   41 1

#	End of record

