#	Name: ASD01911499
#	Creating user name:	WinNT
#	Creation time:	15. 06. 2019 19:57

#	Modifying user name:	WinNT
#	Modification time:	15. 06. 2019 19:57

#	Program:	/corina/corina34_cracker 3.40 0067  02.08.2006

@<TRIPOS>MOLECULE
ASD01911499
  26   27    0    0    0
SMALL
NO_CHARGES


@<TRIPOS>ATOM
   1 C1            -0.0161     1.3353     0.0094 C.2     
   2 N2             0.0021    -0.0041     0.0020 N.am    
   3 C3             1.3973    -0.4682    -0.0138 C.3     
   4 C4             2.2200     0.8349    -0.0147 C.3     
   5 N5             1.2009     1.8949     0.0008 N.am    
   6 O6            -1.0441     1.9843     0.0179 O.2     
   7 C7             1.7024    -1.2951     1.2368 C.3     
   8 C8             1.6784    -1.2816    -1.2788 C.3     
   9 C9             1.4602     3.2654     0.0057 C.ar    
  10 C10            0.4113     4.1758     0.1262 C.ar    
  11 C11            0.7211     5.5264     0.1257 C.ar    
  12 C12            2.0566     5.8896     0.0053 C.ar    
  13 N13            2.9852     4.9591    -0.1041 N.ar    
  14 N14            2.7041     3.7068    -0.0987 N.ar    
  15 Cl15           2.5032     7.5672    -0.0017 Cl      
  16 H16           -0.7808    -0.5768     0.0064 H       
  17 H17            2.8458     0.8928     0.8759 H       
  18 H18            2.8287     0.9025    -0.9163 H       
  19 H19            1.0597    -2.1752     1.2563 H       
  20 H20            2.7464    -1.6080     1.2198 H       
  21 H21            1.5186    -0.6912     2.1254 H       
  22 H22            1.4777    -0.6682    -2.1572 H       
  23 H23            2.7225    -1.5945    -1.2851 H       
  24 H24            1.0353    -2.1615    -1.2954 H       
  25 H25           -0.6108     3.8390     0.2167 H       
  26 H26           -0.0526     6.2745     0.2159 H       
@<TRIPOS>BOND
   1    1    2 am
   2    1    5 am
   3    1    6 2
   4    2    3 1
   5    2   16 1
   6    3    4 1
   7    3    7 1
   8    3    8 1
   9    4    5 1
  10    4   17 1
  11    4   18 1
  12    5    9 1
  13    7   19 1
  14    7   20 1
  15    7   21 1
  16    8   22 1
  17    8   23 1
  18    8   24 1
  19    9   10 ar
  20    9   14 ar
  21   10   11 ar
  22   10   25 1
  23   11   12 ar
  24   11   26 1
  25   12   13 ar
  26   12   15 1
  27   13   14 ar

#	End of record

