#	Name: ASD01120075
#	Creating user name:	WinNT
#	Creation time:	15. 06. 2019 18:58

#	Modifying user name:	WinNT
#	Modification time:	15. 06. 2019 18:58

#	Program:	/corina/corina34_cracker 3.40 0067  02.08.2006

@<TRIPOS>MOLECULE
ASD01120075
  45   47    0    0    0
SMALL
NO_CHARGES


@<TRIPOS>ATOM
   1 C1            -0.0155     1.4020    -0.0397 C.ar    
   2 C2             0.0048     0.0005    -0.0624 C.ar    
   3 C3            -1.1689    -0.7202    -0.0544 C.ar    
   4 C4            -2.3940    -0.0431    -0.0226 C.ar    
   5 C5            -2.4066     1.3736     0.0008 C.ar    
   6 C6            -1.1994     2.0825    -0.0029 C.ar    
   7 N7            -3.5654    -0.6985    -0.0140 N.ar    
   8 C8            -4.6976    -0.0367     0.0156 C.ar    
   9 N9            -4.7581     1.2853     0.0382 N.ar    
  10 C10           -3.6601     2.0298     0.0322 C.ar    
  11 N11           -3.7382     3.4079     0.0565 N.pl3   
  12 C12           -4.9821     4.0391    -0.0337 C.ar    
  13 C13           -5.2124     5.2242     0.6527 C.ar    
  14 C14           -6.4435     5.8456     0.5613 C.ar    
  15 C15           -7.4454     5.2880    -0.2131 C.ar    
  16 C16           -7.2186     4.1078    -0.8973 C.ar    
  17 C17           -5.9887     3.4853    -0.8149 C.ar    
  18 Br18          -6.7591     7.4590     1.4958 Br      
  19 O19            1.1564     2.0916    -0.0487 O.3     
  20 O20            1.1949    -0.6538    -0.0932 O.3     
  21 C21            1.0701     3.5178    -0.0244 C.3     
  22 C22            2.4790     4.1143    -0.0389 C.3     
  23 C23            1.1496    -2.0819    -0.1153 C.3     
  24 C24            2.5751    -2.6369    -0.1485 C.3     
  25 C25           -5.9871    -0.8164     0.0236 C.3     
  26 Cl26          -6.4736    -1.1558     1.7263 Cl      
  27 H27           -1.1444    -1.7998    -0.0728 H       
  28 H28           -1.2042     3.1623     0.0149 H       
  29 H29           -2.9299     3.9382     0.1362 H       
  30 H30           -4.4306     5.6594     1.2575 H       
  31 H31           -8.4067     5.7753    -0.2831 H       
  32 H32           -8.0029     3.6747    -1.5003 H       
  33 H33           -5.8126     2.5636    -1.3496 H       
  34 H34            0.5202     3.8635    -0.8997 H       
  35 H35            0.5506     3.8350     0.8798 H       
  36 H36            2.4132     5.2022    -0.0204 H       
  37 H37            3.0290     3.7687     0.8364 H       
  38 H38            2.9985     3.7971    -0.9431 H       
  39 H39            0.6398    -2.4431     0.7779 H       
  40 H40            0.6094    -2.4147    -1.0016 H       
  41 H41            3.1153    -2.3042     0.7378 H       
  42 H42            2.5405    -3.7262    -0.1653 H       
  43 H43            3.0849    -2.2757    -1.0417 H       
  44 H44           -6.7667    -0.2344    -0.4679 H       
  45 H45           -5.8461    -1.7573    -0.5084 H       
@<TRIPOS>BOND
   1    1    2 ar
   2    1   19 1
   3    1    6 ar
   4    2    3 ar
   5    2   20 1
   6    3    4 ar
   7    3   27 1
   8    4    5 ar
   9    4    7 ar
  10    5    6 ar
  11    5   10 ar
  12    6   28 1
  13    7    8 ar
  14    8    9 ar
  15    8   25 1
  16    9   10 ar
  17   10   11 1
  18   11   12 1
  19   11   29 1
  20   12   13 ar
  21   12   17 ar
  22   13   14 ar
  23   13   30 1
  24   14   15 ar
  25   14   18 1
  26   15   16 ar
  27   15   31 1
  28   16   17 ar
  29   16   32 1
  30   17   33 1
  31   19   21 1
  32   20   23 1
  33   21   22 1
  34   21   34 1
  35   21   35 1
  36   22   36 1
  37   22   37 1
  38   22   38 1
  39   23   24 1
  40   23   39 1
  41   23   40 1
  42   24   41 1
  43   24   42 1
  44   24   43 1
  45   25   26 1
  46   25   44 1
  47   25   45 1

#	End of record

