#	Name: ASD01884836
#	Creating user name:	WinNT
#	Creation time:	15. 06. 2019 19:48

#	Modifying user name:	WinNT
#	Modification time:	15. 06. 2019 19:48

#	Program:	/corina/corina34_cracker 3.40 0067  02.08.2006

@<TRIPOS>MOLECULE
ASD01884836
  58   62    0    0    0
SMALL
NO_CHARGES


@<TRIPOS>ATOM
   1 C1            -0.0169     1.3939     0.0097 C.ar    
   2 C2             0.0021    -0.0041     0.0020 C.ar    
   3 C3            -1.1988    -0.7136     0.0101 C.ar    
   4 C4            -2.4064    -0.0251     0.0258 C.ar    
   5 C5            -2.4125     1.3700     0.0334 C.ar    
   6 C6            -1.2225     2.0697     0.0306 C.ar    
   7 C7            -3.6879    -0.7734     0.0340 C.ar    
   8 C8            -3.6840    -2.1665     0.0261 C.ar    
   9 C9            -4.8790    -2.8575     0.0343 C.ar    
  10 C10           -6.0785    -2.1694     0.0503 C.ar    
  11 C11           -6.0882    -0.7860     0.0583 C.ar    
  12 C12           -4.8994    -0.0852     0.0556 C.ar    
  13 C13           -8.9696     0.8464     1.6210 C.ar    
  14 C14           -9.7146     1.2687     0.5224 C.ar    
  15 C15           -9.4156     1.0923     2.9083 C.ar    
  16 C16          -10.6145     1.7649     3.1072 C.ar    
  17 C17          -11.3600     2.1876     1.9937 C.ar    
  18 C18          -10.8949     1.9309     0.7019 C.ar    
  19 O19          -11.2801     2.1347     4.2196 O.3     
  20 N20          -12.4722     2.8055     3.8637 N.am    
  21 C21          -12.5575     2.8583     2.5178 C.2     
  22 O22          -13.4534     3.3633     1.8646 O.2     
  23 C23          -13.4548     3.3532     4.8021 C.3     
  24 C24           -7.3992    -0.0431     0.0753 C.3     
  25 O25           -7.8005     0.1840     1.4279 O.3     
  26 C26          -13.5877     4.8610     4.5793 C.3     
  27 Cl27           1.4750     2.2815     0.0002 Cl      
  28 C28            1.2894    -0.7272    -0.0151 C.2     
  29 O29            2.3342    -0.1074    -0.0226 O.2     
  30 O30            1.3053    -2.0743    -0.0225 O.3     
  31 C31          -14.6139     5.4330     5.5594 C.3     
  32 C32          -15.9693     4.7619     5.3280 C.3     
  33 C33          -15.8364     3.2540     5.5509 C.3     
  34 C34          -14.8102     2.6821     4.5708 C.3     
  35 H35           -1.1905    -1.7935     0.0039 H       
  36 H36           -3.3511     1.9041     0.0456 H       
  37 H37           -1.2336     3.1497     0.0369 H       
  38 H38           -2.7478    -2.7048     0.0131 H       
  39 H39           -4.8771    -3.9375     0.0277 H       
  40 H40           -7.0111    -2.7140     0.0563 H       
  41 H41           -4.9081     0.9948     0.0618 H       
  42 H42           -9.3563     1.0715    -0.4772 H       
  43 H43           -8.8332     0.7617     3.7555 H       
  44 H44          -11.4679     2.2563    -0.1537 H       
  45 H45          -13.1257     3.1645     5.8240 H       
  46 H46           -7.2816     0.9132    -0.4342 H       
  47 H47           -8.1591    -0.6354    -0.4345 H       
  48 H48          -12.6221     5.3391     4.7441 H       
  49 H49          -13.9168     5.0497     3.5574 H       
  50 H50            2.1719    -2.5031    -0.0338 H       
  51 H51          -14.2848     5.2443     6.5812 H       
  52 H52          -14.7086     6.5072     5.4006 H       
  53 H53          -16.7004     5.1693     6.0263 H       
  54 H54          -16.2984     4.9505     4.3062 H       
  55 H55          -15.5073     3.0654     6.5728 H       
  56 H56          -16.8020     2.7759     5.3861 H       
  57 H57          -15.1393     2.8707     3.5489 H       
  58 H58          -14.7156     1.6079     4.7296 H       
@<TRIPOS>BOND
   1    1    2 ar
   2    1   27 1
   3    1    6 ar
   4    2    3 ar
   5    2   28 1
   6    3    4 ar
   7    3   35 1
   8    4    5 ar
   9    4    7 1
  10    5    6 ar
  11    5   36 1
  12    6   37 1
  13    7    8 ar
  14    7   12 ar
  15    8    9 ar
  16    8   38 1
  17    9   10 ar
  18    9   39 1
  19   10   11 ar
  20   10   40 1
  21   11   12 ar
  22   11   24 1
  23   12   41 1
  24   13   14 ar
  25   13   15 ar
  26   13   25 1
  27   14   18 ar
  28   14   42 1
  29   15   16 ar
  30   15   43 1
  31   16   17 ar
  32   16   19 1
  33   17   18 ar
  34   17   21 1
  35   18   44 1
  36   19   20 1
  37   20   21 am
  38   20   23 1
  39   21   22 2
  40   23   26 1
  41   23   34 1
  42   23   45 1
  43   24   25 1
  44   24   46 1
  45   24   47 1
  46   26   31 1
  47   26   48 1
  48   26   49 1
  49   28   29 2
  50   28   30 1
  51   30   50 1
  52   31   32 1
  53   31   51 1
  54   31   52 1
  55   32   33 1
  56   32   53 1
  57   32   54 1
  58   33   34 1
  59   33   55 1
  60   33   56 1
  61   34   57 1
  62   34   58 1

#	End of record

