#	Name: ASD03091699
#	Creating user name:	WinNT
#	Creation time:	15. 06. 2019 20:31

#	Modifying user name:	WinNT
#	Modification time:	15. 06. 2019 20:31

#	Program:	/corina/corina34_cracker 3.40 0067  02.08.2006

@<TRIPOS>MOLECULE
ASD03091699
  42   44    0    0    0
SMALL
NO_CHARGES


@<TRIPOS>ATOM
   1 C1            -0.0169     1.3962     0.0097 C.ar    
   2 C2             0.0021    -0.0041     0.0020 C.ar    
   3 C3             1.2246    -0.6840    -0.0129 C.ar    
   4 C4             2.4055     0.0182    -0.0195 C.ar    
   5 C5             2.3922     1.4078    -0.0114 C.ar    
   6 C6             1.2169     2.0904     0.0017 C.ar    
   7 S7            -1.6481    -0.6156     0.0145 S.3     
   8 C8            -2.3041     1.0119     0.0295 C.2     
   9 C9            -1.3207     1.9174     0.0306 C.2     
  10 C10           -3.7382     1.3351     0.0444 C.2     
  11 O11           -4.0998     2.4966     0.0537 O.2     
  12 N12           -4.6522     0.3447     0.0478 N.am    
  13 N13           -7.6220    -0.0594    -1.6964 N.3     
  14 C14           -6.5675     0.9097    -1.3690 C.3     
  15 C15           -6.0813     0.6668     0.0627 C.3     
  16 C16           -6.8667    -0.5077     0.6597 C.3     
  17 C17           -6.6386    -1.7450    -0.2177 C.3     
  18 C18           -7.1099    -1.4356    -1.6414 C.3     
  19 C19           -8.7836     0.1053    -0.8116 C.3     
  20 C20           -8.3604    -0.1597     0.6359 C.3     
  21 N21            3.6714     2.1525    -0.0177 N.pl3   
  22 O22            4.7283     1.5473    -0.0299 O.2     
  23 O23            3.6671     3.3705    -0.0107 O.2     
  24 H24            1.2401    -1.7639    -0.0188 H       
  25 H25            3.3468    -0.5112    -0.0306 H       
  26 H26            1.2243     3.1703     0.0070 H       
  27 H27           -1.5160     2.9795     0.0393 H       
  28 H28           -4.3638    -0.5814     0.0404 H       
  29 H29           -5.7345     0.7884    -2.0615 H       
  30 H30           -6.9650     1.9213    -1.4514 H       
  31 H31           -6.2498     1.5613     0.6623 H       
  32 H32           -6.5317    -0.7035     1.6783 H       
  33 H33           -5.5773    -1.9932    -0.2302 H       
  34 H34           -7.2073    -2.5852     0.1808 H       
  35 H35           -7.9023    -2.1299    -1.9211 H       
  36 H36           -6.2734    -1.5403    -2.3323 H       
  37 H37           -9.1656     1.1225    -0.8985 H       
  38 H38           -9.5622    -0.6016    -1.0982 H       
  39 H39           -8.9361    -0.9935     1.0379 H       
  40 H40           -8.5373     0.7321     1.2372 H       
  41 Cl41           9.7283     8.3705     6.6783 Cl      
  42 H42            9.7283     9.7405     6.6783 H       
@<TRIPOS>BOND
   1    1    2 ar
   2    1    6 ar
   3    1    9 1
   4    2    3 ar
   5    2    7 1
   6    3    4 ar
   7    3   24 1
   8    4    5 ar
   9    4   25 1
  10    5    6 ar
  11    5   21 1
  12    6   26 1
  13    7    8 1
  14    8    9 2
  15    8   10 1
  16    9   27 1
  17   10   11 2
  18   10   12 am
  19   12   15 1
  20   12   28 1
  21   13   14 1
  22   13   18 1
  23   13   19 1
  24   14   15 1
  25   14   29 1
  26   14   30 1
  27   15   16 1
  28   15   31 1
  29   16   17 1
  30   16   20 1
  31   16   32 1
  32   17   18 1
  33   17   33 1
  34   17   34 1
  35   18   35 1
  36   18   36 1
  37   19   20 1
  38   19   37 1
  39   19   38 1
  40   20   39 1
  41   20   40 1
  42   21   22 2
  43   21   23 2
  44   41   42 1

#	End of record

