#	Name: ASD02030084
#	Creating user name:	WinNT
#	Creation time:	15. 06. 2019 20:14

#	Modifying user name:	WinNT
#	Modification time:	15. 06. 2019 20:14

#	Program:	/corina/corina34_cracker 3.40 0067  02.08.2006

@<TRIPOS>MOLECULE
ASD02030084
  64   67    0    0    0
SMALL
NO_CHARGES


@<TRIPOS>ATOM
   1 C1            -0.5826     0.3219     1.1908 C.ar    
   2 C2             0.0054     0.0027    -0.0250 C.ar    
   3 C3            -0.6109     0.3496    -1.2126 C.ar    
   4 C4            -1.8228     1.0198    -1.1992 C.ar    
   5 C5            -2.4257     1.3472     0.0254 C.ar    
   6 C6            -1.7973     0.9875     1.2235 C.ar    
   7 C7            -3.7143     2.0603     0.0496 C.2     
   8 C8            -3.7417     3.5321     0.1692 C.ar    
   9 C9            -2.5539     4.2400     0.3720 C.ar    
  10 C10           -2.5792     5.6113     0.4835 C.ar    
  11 C11           -4.9582     4.2216     0.0738 C.ar    
  12 O12           -4.7558     1.4371    -0.0290 O.2     
  13 F13           -2.3687     1.2971     2.4080 F       
  14 O14           -2.4256     1.3596    -2.3668 O.3     
  15 C15           -4.9786     5.6027     0.1862 C.ar    
  16 C16           -3.7912     6.3009     0.3940 C.ar    
  17 O17           -6.1129     3.5387    -0.1287 O.3     
  18 C18           -3.8127     7.7763     0.5142 C.2     
  19 N19           -2.6645     8.4528     0.7153 N.am    
  20 O20           -4.8656     8.3774     0.4315 O.2     
  21 C21           -2.6858     9.9128     0.8342 C.3     
  22 C22           -2.9623    10.3275     2.2940 C.3     
  23 C23           -1.7152    11.1281     2.7267 C.3     
  24 N24           -1.1330    11.6301     1.4555 N.3     
  25 C25           -1.2949    10.4977     0.5076 C.3     
  26 C26            0.2174    11.9592     1.6178 C.ar    
  27 C27            1.1258    10.9881     2.0177 C.ar    
  28 C28            0.6508    13.2556     1.3734 C.ar    
  29 C29            1.9838    13.5793     1.5334 C.ar    
  30 C30            2.8897    12.6099     1.9375 C.ar    
  31 C31            2.4585    11.3136     2.1771 C.ar    
  32 O32            4.2024    12.9293     2.0940 O.3     
  33 C33           -1.7538     0.9945    -3.5740 C.3     
  34 O34           -1.9023    -0.4093    -3.7960 O.3     
  35 C35           -3.2005    -0.7910    -4.2553 C.3     
  36 O36            0.0326    -0.0246     2.3536 O.3     
  37 C37            1.2796    -0.7144     2.2473 C.3     
  38 H38            0.9506    -0.5195    -0.0433 H       
  39 H39           -0.1457     0.0974    -2.1541 H       
  40 H40           -1.6153     3.7103     0.4416 H       
  41 H41           -1.6599     6.1559     0.6409 H       
  42 H42           -5.9141     6.1372     0.1128 H       
  43 H43           -6.5576     3.2677     0.6861 H       
  44 H44           -1.8240     7.9730     0.7812 H       
  45 H45           -3.4409    10.3351     0.1712 H       
  46 H46           -3.8521    10.9548     2.3474 H       
  47 H47           -3.0821     9.4448     2.9221 H       
  48 H48           -2.0020    11.9610     3.3686 H       
  49 H49           -1.0056    10.4787     3.2394 H       
  50 H50           -0.5195     9.7497     0.6730 H       
  51 H51           -1.2653    10.8561    -0.5214 H       
  52 H52            0.7903     9.9786     2.2043 H       
  53 H53           -0.0543    14.0104     1.0581 H       
  54 H54            2.3211    14.5876     1.3434 H       
  55 H55            3.1645    10.5593     2.4918 H       
  56 H56            4.4302    13.2319     2.9837 H       
  57 H57           -2.1868     1.5425    -4.4108 H       
  58 H58           -0.6949     1.2388    -3.4886 H       
  59 H59           -3.2319    -1.8709    -4.3998 H       
  60 H60           -3.9472    -0.5015    -3.5159 H       
  61 H61           -3.4127    -0.2916    -5.2007 H       
  62 H62            1.1333    -1.6478     1.7039 H       
  63 H63            1.9953    -0.0906     1.7120 H       
  64 H64            1.6612    -0.9308     3.2451 H       
@<TRIPOS>BOND
   1    1    2 ar
   2    1   36 1
   3    1    6 ar
   4    2    3 ar
   5    2   38 1
   6    3    4 ar
   7    3   39 1
   8    4    5 ar
   9    4   14 1
  10    5    6 ar
  11    5    7 1
  12    6   13 1
  13    7    8 1
  14    7   12 2
  15    8    9 ar
  16    8   11 ar
  17    9   10 ar
  18    9   40 1
  19   10   16 ar
  20   10   41 1
  21   11   15 ar
  22   11   17 1
  23   14   33 1
  24   15   16 ar
  25   15   42 1
  26   16   18 1
  27   17   43 1
  28   18   19 am
  29   18   20 2
  30   19   21 1
  31   19   44 1
  32   21   22 1
  33   21   25 1
  34   21   45 1
  35   22   23 1
  36   22   46 1
  37   22   47 1
  38   23   24 1
  39   23   48 1
  40   23   49 1
  41   24   25 1
  42   24   26 1
  43   25   50 1
  44   25   51 1
  45   26   27 ar
  46   26   28 ar
  47   27   31 ar
  48   27   52 1
  49   28   29 ar
  50   28   53 1
  51   29   30 ar
  52   29   54 1
  53   30   31 ar
  54   30   32 1
  55   31   55 1
  56   32   56 1
  57   33   34 1
  58   33   57 1
  59   33   58 1
  60   34   35 1
  61   35   59 1
  62   35   60 1
  63   35   61 1
  64   36   37 1
  65   37   62 1
  66   37   63 1
  67   37   64 1

#	End of record

