#	Name: ASD02770030
#	Creating user name:	WinNT
#	Creation time:	15. 06. 2019 20:26

#	Modifying user name:	WinNT
#	Modification time:	15. 06. 2019 20:26

#	Program:	/corina/corina34_cracker 3.40 0067  02.08.2006

@<TRIPOS>MOLECULE
ASD02770030
  31   32    0    0    0
SMALL
NO_CHARGES


@<TRIPOS>ATOM
   1 C1            -0.0165     1.3678     0.0096 C.2     
   2 C2             0.0021    -0.0041     0.0020 C.2     
   3 C3             1.3435    -0.5459    -0.0137 C.2     
   4 C4             2.2832     0.3883    -0.0177 C.2     
   5 S5             1.5698     1.9912    -0.0022 S.3     
   6 C6            -1.2066    -0.8314     0.0091 C.2     
   7 O7            -2.3038    -0.3055     0.0224 O.2     
   8 N8            -1.1034    -2.1752     0.0009 N.am    
   9 N9            -1.1664     2.1400     0.0194 N.am    
  10 C10           -1.0750     3.4847     0.0263 C.2     
  11 O11            0.0172     4.0201     0.0238 O.2     
  12 C12           -3.5520     3.7811     0.0406 C.2     
  13 C13           -2.2965     4.3050     0.0367 C.2     
  14 C14           -2.2859     5.7493     0.0449 C.2     
  15 C15           -3.5034     6.2788     0.0544 C.2     
  16 S16           -4.7245     5.0182     0.0539 S.3     
  17 C17           -3.7961     7.7571     0.0648 C.3     
  18 C18           -2.2156    -2.9365     0.0074 C.2     
  19 O19           -3.3116    -2.4111     0.0207 O.2     
  20 N20           -2.1125    -4.2803    -0.0008 N.am    
  21 H21            1.5573    -1.6046    -0.0209 H       
  22 H22            3.3447     0.1899    -0.0289 H       
  23 H23           -0.2288    -2.5944    -0.0097 H       
  24 H24           -2.0374     1.7131     0.0214 H       
  25 H25           -3.7756     2.7246     0.0317 H       
  26 H26           -1.3805     6.3382     0.0433 H       
  27 H27           -3.8721     8.1196    -0.9603 H       
  28 H28           -4.7370     7.9375     0.5847 H       
  29 H29           -2.9910     8.2833     0.5776 H       
  30 H30           -1.2378    -4.6995    -0.0114 H       
  31 H31           -2.9129    -4.8282     0.0039 H       
@<TRIPOS>BOND
   1    1    2 2
   2    1    5 1
   3    1    9 1
   4    2    3 1
   5    2    6 1
   6    3    4 2
   7    3   21 1
   8    4    5 1
   9    4   22 1
  10    6    7 2
  11    6    8 am
  12    8   18 am
  13    8   23 1
  14    9   10 am
  15    9   24 1
  16   10   11 2
  17   10   13 1
  18   12   13 2
  19   12   16 1
  20   12   25 1
  21   13   14 1
  22   14   15 2
  23   14   26 1
  24   15   16 1
  25   15   17 1
  26   17   27 1
  27   17   28 1
  28   17   29 1
  29   18   19 2
  30   18   20 am
  31   20   30 1
  32   20   31 1

#	End of record

