#	Name: ASD01870382
#	Creating user name:	WinNT
#	Creation time:	15. 06. 2019 19:39

#	Modifying user name:	WinNT
#	Modification time:	15. 06. 2019 19:39

#	Program:	/corina/corina34_cracker 3.40 0067  02.08.2006

@<TRIPOS>MOLECULE
ASD01870382
  52   56    0    0    0
SMALL
NO_CHARGES


@<TRIPOS>ATOM
   1 N1            -0.0179     1.4660     0.0101 N.am    
   2 C2             0.0021    -0.0041     0.0020 C.3     
   3 C3             1.0665     2.2663     0.0040 C.2     
   4 C4             0.8979     3.7638     0.0137 C.3     
   5 O5             2.1781     1.7813    -0.0092 O.2     
   6 C6             2.2288     4.5375     0.0051 C.3     
   7 N7             1.5835     5.4378    -0.9701 N.am    
   8 C8             0.6524     4.3689    -1.3804 C.3     
   9 S9             1.8124     7.0144    -1.4223 S.o2    
  10 C10            2.9757     7.0138    -2.7457 C.ar    
  11 O11            0.5792     7.4571    -1.9722 O.2     
  12 O12            2.4505     7.6573    -0.3274 O.2     
  13 C13            4.2932     6.5857    -2.5282 C.ar    
  14 C14            2.6007     7.4238    -3.9894 C.ar    
  15 C15            3.5077     7.4293    -5.0476 C.ar    
  16 C16            4.7961     7.0254    -4.8715 C.ar    
  17 C17            5.2178     6.5915    -3.6048 C.ar    
  18 C18            6.5334     6.1641    -3.3627 C.ar    
  19 N19            6.8813     5.7674    -2.1610 N.ar    
  20 C20            6.0368     5.7482    -1.1388 C.ar    
  21 C21            4.7409     6.1456    -1.2691 C.ar    
  22 C22           -1.4652    -0.4821    -0.0147 C.3     
  23 C23           -2.2238     0.7447    -0.5863 C.3     
  24 C24           -1.4205     1.9197     0.0195 C.3     
  25 C25           -1.6263    -1.6772    -0.9186 C.ar    
  26 C26           -2.0886    -2.8823    -0.4130 C.ar    
  27 C27           -2.2216    -3.9550    -1.2817 C.ar    
  28 C28           -1.8912    -3.7882    -2.6131 C.ar    
  29 N29           -1.4538    -2.6267    -3.0592 N.ar    
  30 C30           -1.3204    -1.5839    -2.2633 C.ar    
  31 H31            0.5190    -0.3629    -0.8880 H       
  32 H32            0.5019    -0.3730     0.8976 H       
  33 H33            0.1954     4.1074     0.7730 H       
  34 H34            2.4649     5.0160     0.9556 H       
  35 H35            3.0639     3.9705    -0.4061 H       
  36 H36            1.0245     3.7523    -2.1987 H       
  37 H37           -0.3701     4.7128    -1.5362 H       
  38 H38            1.5848     7.7493    -4.1581 H       
  39 H39            3.1832     7.7591    -6.0235 H       
  40 H40            5.4874     7.0349    -5.7012 H       
  41 H41            7.2575     6.1614    -4.1640 H       
  42 H42            6.3874     5.4101    -0.1749 H       
  43 H43            4.0697     6.1219    -0.4233 H       
  44 H44           -1.8076    -0.7115     0.9944 H       
  45 H45           -2.1743     0.7622    -1.6750 H       
  46 H46           -3.2585     0.7587    -0.2436 H       
  47 H47           -1.7443     2.1132     1.0422 H       
  48 H48           -1.5375     2.8144    -0.5920 H       
  49 H49           -2.3390    -2.9835     0.6327 H       
  50 H50           -2.5786    -4.9088    -0.9223 H       
  51 H51           -1.9919    -4.6186    -3.2961 H       
  52 H52           -0.9591    -0.6487    -2.6649 H       
@<TRIPOS>BOND
   1    1    2 1
   2    1    3 am
   3    1   24 1
   4    2   22 1
   5    2   31 1
   6    2   32 1
   7    3    4 1
   8    3    5 2
   9    4    6 1
  10    4    8 1
  11    4   33 1
  12    6    7 1
  13    6   34 1
  14    6   35 1
  15    7    8 1
  16    7    9 am
  17    8   36 1
  18    8   37 1
  19    9   10 1
  20    9   11 2
  21    9   12 2
  22   10   14 ar
  23   10   13 ar
  24   13   17 ar
  25   13   21 ar
  26   14   15 ar
  27   14   38 1
  28   15   16 ar
  29   15   39 1
  30   16   17 ar
  31   16   40 1
  32   17   18 ar
  33   18   19 ar
  34   18   41 1
  35   19   20 ar
  36   20   21 ar
  37   20   42 1
  38   21   43 1
  39   22   23 1
  40   22   25 1
  41   22   44 1
  42   23   24 1
  43   23   45 1
  44   23   46 1
  45   24   47 1
  46   24   48 1
  47   25   26 ar
  48   25   30 ar
  49   26   27 ar
  50   26   49 1
  51   27   28 ar
  52   27   50 1
  53   28   29 ar
  54   28   51 1
  55   29   30 ar
  56   30   52 1

#	End of record

