#	Name: ASD08150899
#	Creating user name:	WinNT
#	Creation time:	15. 06. 2019 21:16

#	Modifying user name:	WinNT
#	Modification time:	15. 06. 2019 21:16

#	Program:	/corina/corina34_cracker 3.40 0067  02.08.2006

@<TRIPOS>MOLECULE
ASD08150899
  60   64    0    0    0
SMALL
NO_CHARGES


@<TRIPOS>ATOM
   1 N1             0.3607     1.1937    -0.4642 N.2     
   2 C2             0.4375    -0.1041    -0.5212 C.2     
   3 N3             1.7439    -0.4930    -0.5382 N.pl3   
   4 C4             2.5119     0.6428    -0.4883 C.ar    
   5 N5             3.8169     0.8937    -0.4776 N.ar    
   6 C6             4.2618     2.1315    -0.4237 C.ar    
   7 N7             3.4528     3.1741    -0.3776 N.ar    
   8 C8             2.1325     3.0216    -0.3839 C.ar    
   9 C9             1.6092     1.7188    -0.4412 C.ar    
  10 N10            1.2926     4.1204    -0.3349 N.pl3   
  11 C11            1.8564     5.4712    -0.2751 C.3     
  12 C12            2.2612     5.9177    -1.6814 C.3     
  13 N13            0.6287     9.5509     2.1175 N.ar    
  14 C14           -0.2644    10.3809     2.5991 C.ar    
  15 C15           -1.6310    10.1518     2.4536 C.ar    
  16 C16           -2.0689     9.0384     1.7949 C.ar    
  17 C17           -1.1064     8.1498     1.2794 C.ar    
  18 C18           -1.4834     6.9848     0.5904 C.ar    
  19 C19           -0.5272     6.1446     0.1028 C.ar    
  20 C20            0.8253     6.4219     0.2765 C.ar    
  21 C21            1.2340     7.5544     0.9466 C.ar    
  22 C22            0.2668     8.4440     1.4633 C.ar    
  23 N23            2.5935     7.8199     1.1139 N.3     
  24 C24            2.9606     7.8113     2.5369 C.3     
  25 C25            4.4697     8.0268     2.6730 C.3     
  26 N26            4.8382     9.3031     2.0447 N.3     
  27 C27            4.4712     9.3117     0.6217 C.3     
  28 C28            2.9620     9.0962     0.4856 C.3     
  29 C29            6.2696     9.5826     2.2208 C.3     
  30 C30            6.6324    10.8715     1.4805 C.3     
  31 O31            5.9115    11.9665     2.0492 O.3     
  32 C32            6.1795    13.2247     1.4268 C.3     
  33 Cl33          -3.1641     6.6158     0.3609 Cl      
  34 H34           -0.4089    -0.7743    -0.5503 H       
  35 H35            2.0707    -1.4055    -0.5779 H       
  36 H36            5.3284     2.3006    -0.4165 H       
  37 H37            0.3306     3.9962    -0.3401 H       
  38 H38            2.7332     5.4706     0.3724 H       
  39 H39            2.5980     6.9539    -1.6508 H       
  40 H40            3.0695     5.2835    -2.0453 H       
  41 H41            1.4044     5.8337    -2.3499 H       
  42 H42            0.0678    11.2652     3.1226 H       
  43 H43           -2.3432    10.8537     2.8615 H       
  44 H44           -3.1244     8.8449     1.6732 H       
  45 H45           -0.8236     5.2508    -0.4259 H       
  46 H46            2.4309     8.6114     3.0539 H       
  47 H47            2.6891     6.8515     2.9767 H       
  48 H48            4.7400     8.0497     3.7287 H       
  49 H49            4.9994     7.2121     2.1792 H       
  50 H50            4.7426    10.2715     0.1820 H       
  51 H51            5.0009     8.5116     0.1047 H       
  52 H52            2.6917     9.0733    -0.5701 H       
  53 H53            2.4323     9.9109     0.9794 H       
  54 H54            6.4892     9.6991     3.2821 H       
  55 H55            6.8537     8.7554     1.8176 H       
  56 H56            7.7030    11.0544     1.5726 H       
  57 H57            6.3702    10.7717     0.4273 H       
  58 H58            5.9078    13.1736     0.3725 H       
  59 H59            5.5943    14.0037     1.9155 H       
  60 H60            7.2407    13.4563     1.5178 H       
@<TRIPOS>BOND
   1    1    2 2
   2    1    9 1
   3    2    3 1
   4    2   34 1
   5    3    4 1
   6    3   35 1
   7    4    5 ar
   8    4    9 ar
   9    5    6 ar
  10    6    7 ar
  11    6   36 1
  12    7    8 ar
  13    8    9 ar
  14    8   10 1
  15   10   11 1
  16   10   37 1
  17   11   12 1
  18   11   20 1
  19   11   38 1
  20   12   39 1
  21   12   40 1
  22   12   41 1
  23   13   14 ar
  24   13   22 ar
  25   14   15 ar
  26   14   42 1
  27   15   16 ar
  28   15   43 1
  29   16   17 ar
  30   16   44 1
  31   17   18 ar
  32   17   22 ar
  33   18   19 ar
  34   18   33 1
  35   19   20 ar
  36   19   45 1
  37   20   21 ar
  38   21   22 ar
  39   21   23 1
  40   23   24 1
  41   23   28 1
  42   24   25 1
  43   24   46 1
  44   24   47 1
  45   25   26 1
  46   25   48 1
  47   25   49 1
  48   26   27 1
  49   26   29 1
  50   27   28 1
  51   27   50 1
  52   27   51 1
  53   28   52 1
  54   28   53 1
  55   29   30 1
  56   29   54 1
  57   29   55 1
  58   30   31 1
  59   30   56 1
  60   30   57 1
  61   31   32 1
  62   32   58 1
  63   32   59 1
  64   32   60 1

#	End of record

