#	Name: ASD04590785
#	Creating user name:	WinNT
#	Creation time:	15. 06. 2019 20:51

#	Modifying user name:	WinNT
#	Modification time:	15. 06. 2019 20:51

#	Program:	/corina/corina34_cracker 3.40 0067  02.08.2006

@<TRIPOS>MOLECULE
ASD04590785
  71   76    0    0    0
SMALL
NO_CHARGES


@<TRIPOS>ATOM
   1 N1            -2.3786    -2.7063     0.0213 N.ar    
   2 C2            -1.2121    -2.0744     0.0045 C.ar    
   3 N3            -0.0579    -2.7207    -0.0182 N.ar    
   4 C4            -0.0264    -4.0500    -0.0250 C.ar    
   5 C5            -1.2491    -4.7510    -0.0075 C.ar    
   6 C6            -2.4374    -4.0279     0.0161 C.ar    
   7 N7             0.9975    -4.9644    -0.0462 N.pl3   
   8 C8             0.4945    -6.2539    -0.0434 C.ar    
   9 C9            -0.9097    -6.1797    -0.0194 C.ar    
  10 C10            1.0910    -7.5081    -0.0580 C.ar    
  11 N11            0.3547    -8.6005    -0.0501 N.ar    
  12 C12           -0.9660    -8.5653    -0.0277 C.ar    
  13 C13           -1.6441    -7.3649    -0.0119 C.ar    
  14 C14            2.4220    -4.6232    -0.0694 C.3     
  15 N15           -1.2023    -0.6889     0.0103 N.pl3   
  16 C16           -2.3994     0.0160    -0.0791 C.ar    
  17 N17           -3.5337    -0.6392    -0.2706 N.ar    
  18 C18           -4.6897    -0.0095    -0.3611 C.ar    
  19 C19           -4.7569     1.3655    -0.2582 C.ar    
  20 C20           -3.5896     2.0902    -0.0571 C.ar    
  21 C21           -2.3936     1.4019     0.0393 C.ar    
  22 C22           -6.0834     2.0728    -0.3638 C.3     
  23 C23           -6.6979     2.1950     1.0068 C.2     
  24 C24            2.7319    -3.7307    -1.2889 C.3     
  25 C25            2.7880    -3.8030     1.1800 C.3     
  26 C26            3.3075    -2.4406     0.6761 C.3     
  27 C27            2.6728    -2.2879    -0.7285 C.3     
  28 O28           -6.1160     1.7514     1.9740 O.2     
  29 N29           -7.8942     2.7973     1.1577 N.am    
  30 C30           -8.5060     2.9240     2.4875 C.3     
  31 C31           -9.9227     2.3433     2.4358 C.3     
  32 C32          -10.7090     3.0261     1.3144 C.3     
  33 C33          -10.0264     2.7546    -0.0281 C.3     
  34 C34           -8.6083     3.3450    -0.0037 C.3     
  35 N35          -12.0783     2.4952     1.2834 N.3     
  36 C36          -12.8984     3.2111     0.2970 C.3     
  37 C37          -12.0769     1.0504     1.0176 C.3     
  38 H38           -3.3903    -4.5360     0.0299 H       
  39 H39            2.1678    -7.5884    -0.0765 H       
  40 H40           -1.5227    -9.4907    -0.0221 H       
  41 H41           -2.7237    -7.3432     0.0065 H       
  42 H42            3.0227    -5.5319    -0.1087 H       
  43 H43           -0.3613    -0.2101     0.0767 H       
  44 H44           -5.5950    -0.5772    -0.5179 H       
  45 H45           -3.6154     3.1667     0.0267 H       
  46 H46           -1.4669     1.9340     0.1957 H       
  47 H47           -5.9326     3.0670    -0.7843 H       
  48 H48           -6.7492     1.5017    -1.0109 H       
  49 H49            3.7265    -3.9483    -1.6781 H       
  50 H50            1.9788    -3.8698    -2.0646 H       
  51 H51            1.9058    -3.6587     1.8036 H       
  52 H52            3.5670    -4.3132     1.7466 H       
  53 H53            2.9746    -1.6382     1.3344 H       
  54 H54            4.3951    -2.4499     0.6043 H       
  55 H55            3.2606    -1.6092    -1.3464 H       
  56 H56            1.6408    -1.9456    -0.6509 H       
  57 H57           -7.9119     2.3737     3.2170 H       
  58 H58           -8.5524     3.9759     2.7696 H       
  59 H59           -9.8698     1.2718     2.2427 H       
  60 H60          -10.4223     2.5175     3.3887 H       
  61 H61          -10.7404     4.1006     1.4951 H       
  62 H62           -9.9725     1.6792    -0.1980 H       
  63 H63          -10.5998     3.2216    -0.8289 H       
  64 H64           -8.6658     4.4306     0.0747 H       
  65 H65           -8.0821     3.0698    -0.9177 H       
  66 H66          -12.4571     3.0978    -0.6932 H       
  67 H67          -13.9071     2.7981     0.2947 H       
  68 H68          -12.9394     4.2687     0.5576 H       
  69 H69          -11.5207     0.5372     1.8021 H       
  70 H70          -13.1030     0.6832     1.0000 H       
  71 H71          -11.6059     0.8589     0.0535 H       
@<TRIPOS>BOND
   1    1    2 ar
   2    1    6 ar
   3    2    3 ar
   4    2   15 1
   5    3    4 ar
   6    4    5 ar
   7    4    7 1
   8    5    6 ar
   9    5    9 1
  10    6   38 1
  11    7    8 1
  12    7   14 1
  13    8    9 ar
  14    8   10 ar
  15    9   13 ar
  16   10   11 ar
  17   10   39 1
  18   11   12 ar
  19   12   13 ar
  20   12   40 1
  21   13   41 1
  22   14   25 1
  23   14   24 1
  24   14   42 1
  25   15   16 1
  26   15   43 1
  27   16   17 ar
  28   16   21 ar
  29   17   18 ar
  30   18   19 ar
  31   18   44 1
  32   19   20 ar
  33   19   22 1
  34   20   21 ar
  35   20   45 1
  36   21   46 1
  37   22   23 1
  38   22   47 1
  39   22   48 1
  40   23   28 2
  41   23   29 am
  42   24   27 1
  43   24   49 1
  44   24   50 1
  45   25   26 1
  46   25   51 1
  47   25   52 1
  48   26   27 1
  49   26   53 1
  50   26   54 1
  51   27   55 1
  52   27   56 1
  53   29   30 1
  54   29   34 1
  55   30   31 1
  56   30   57 1
  57   30   58 1
  58   31   32 1
  59   31   59 1
  60   31   60 1
  61   32   33 1
  62   32   35 1
  63   32   61 1
  64   33   34 1
  65   33   62 1
  66   33   63 1
  67   34   64 1
  68   34   65 1
  69   35   36 1
  70   35   37 1
  71   36   66 1
  72   36   67 1
  73   36   68 1
  74   37   69 1
  75   37   70 1
  76   37   71 1

#	End of record

