#	Name: ASD00844879
#	Creating user name:	WinNT
#	Creation time:	15. 06. 2019 18:51

#	Modifying user name:	WinNT
#	Modification time:	15. 06. 2019 18:51

#	Program:	/corina/corina34_cracker 3.40 0067  02.08.2006

@<TRIPOS>MOLECULE
ASD00844879
  88   93    0    0    0
SMALL
NO_CHARGES


@<TRIPOS>ATOM
   1 F1             5.7048    -2.1656    -1.9879 F       
   2 C2             0.7455     1.2754    -0.4813 C.ar    
   3 C3             0.9926    -0.0680    -0.7227 C.ar    
   4 C4             0.8669    -0.9900     0.3066 C.ar    
   5 C5             0.4961    -0.5682     1.5685 C.ar    
   6 C6             0.2499     0.7716     1.8065 C.ar    
   7 C7             0.3750     1.6922     0.7828 C.ar    
   8 C8             1.1341    -2.4503     0.0477 C.3     
   9 C9             0.8026    -3.2752     1.2728 C.2     
  10 C10            0.3283    -2.9355    -1.1591 C.3     
  11 C11           -1.1328    -2.6384    -0.9398 C.2     
  12 N12           -2.0487    -3.0668    -1.8309 N.am    
  13 O13           -1.4844    -2.0139     0.0386 O.2     
  14 C14           -3.4614    -2.6874    -1.6935 C.3     
  15 C15           -4.3166    -3.9584    -1.7040 C.3     
  16 C16           -4.0032    -4.7689    -2.9637 C.3     
  17 C17           -2.5287    -5.1789    -2.9548 C.3     
  18 C18           -1.6524    -3.9171    -2.9617 C.3     
  19 N19           -4.8455    -5.9721    -2.9937 N.3     
  20 C20           -4.6578    -6.7152    -4.2475 C.3     
  21 C21           -5.4899    -7.9991    -4.2059 C.3     
  22 N22           -6.9050    -7.6563    -4.0070 N.3     
  23 C23           -7.0927    -6.9132    -2.7531 C.3     
  24 C24           -6.2606    -5.6293    -2.7947 C.3     
  25 C25           -7.7474    -8.8595    -4.0370 C.3     
  26 O26           -0.2849    -3.3758     1.8003 O.2     
  27 N27            1.9383    -3.8755     1.6661 N.am    
  28 C28            2.6115    -2.6882    -0.1682 C.ar    
  29 C29            3.0195    -3.5528     0.8424 C.ar    
  30 C30            3.5029    -2.2249    -1.1107 C.ar    
  31 C31            4.8291    -2.6180    -1.0640 C.ar    
  32 C32            5.2573    -3.4868    -0.0550 C.ar    
  33 C33            4.3496    -3.9524     0.8959 C.ar    
  34 C34            1.7225    -6.5180     2.4044 C.ar    
  35 C35            2.7641    -7.3145     1.9665 C.ar    
  36 C36            0.4294    -7.0065     2.3989 C.ar    
  37 C37            0.1778    -8.2914     1.9556 C.ar    
  38 C38            1.2193    -9.0877     1.5173 C.ar    
  39 C39            2.5124    -8.5993     1.5228 C.ar    
  40 H40            1.0227   -10.0916     1.1710 H       
  41 H41            3.7744    -6.9328     1.9708 H       
  42 C42           -9.1639    -8.5018    -3.5828 C.3     
  43 C43            6.6276    -3.8988     0.0011 C.1     
  44 N44            7.7146    -4.2257     0.0457 N.1     
  45 S45            2.0442    -4.8828     2.9763 S.o2    
  46 O46            3.4037    -4.8622     3.3893 O.2     
  47 O47            0.9657    -4.5386     3.8352 O.2     
  48 O48            1.3568    -0.4805    -1.9653 O.3     
  49 C49            1.3866     0.5100    -2.9949 C.3     
  50 C50            1.8978    -0.1187    -4.2927 C.3     
  51 F51            3.1507    -0.6992    -4.0678 F       
  52 F52            0.9987    -1.1013    -4.7207 F       
  53 H53            0.8471     1.9956    -1.2797 H       
  54 H54            0.3981    -1.2855     2.3699 H       
  55 H55           -0.0406     1.0992     2.7937 H       
  56 H56            0.1821     2.7380     0.9712 H       
  57 H57            0.6728    -2.4215    -2.0564 H       
  58 H58            0.4664    -4.0099    -1.2801 H       
  59 H59           -3.6074    -2.1565    -0.7527 H       
  60 H60           -3.7502    -2.0458    -2.5260 H       
  61 H61           -4.0906    -4.5562    -0.8210 H       
  62 H62           -5.3722    -3.6867    -1.6994 H       
  63 H63           -4.2060    -4.1618    -3.8459 H       
  64 H64           -2.3195    -5.7652    -2.0601 H       
  65 H65           -2.3118    -5.7758    -3.8406 H       
  66 H66           -1.7948    -3.3783    -3.8984 H       
  67 H67           -0.6049    -4.1992    -2.8557 H       
  68 H68           -4.9808    -6.0995    -5.0870 H       
  69 H69           -3.6043    -6.9684    -4.3660 H       
  70 H70           -5.3749    -8.5376    -5.1466 H       
  71 H71           -5.1487    -8.6271    -3.3830 H       
  72 H72           -8.1463    -6.6600    -2.6346 H       
  73 H73           -6.7697    -7.5289    -1.9137 H       
  74 H74           -6.3756    -5.0908    -1.8540 H       
  75 H75           -6.6018    -5.0013    -3.6177 H       
  76 H76           -7.7803    -9.2547    -5.0522 H       
  77 H77           -7.3302    -9.6118    -3.3675 H       
  78 H78            3.1663    -1.5543    -1.8874 H       
  79 H79            4.6806    -4.6233     1.6748 H       
  80 H80           -0.3843    -6.3844     2.7413 H       
  81 H81           -0.8325    -8.6733     1.9520 H       
  82 H82            3.3262    -9.2215     1.1807 H       
  83 H83           -9.1310    -8.1065    -2.5675 H       
  84 H84           -9.5810    -7.7495    -4.2522 H       
  85 H85           -9.7889    -9.3945    -3.6050 H       
  86 H86            0.3814     0.9011    -3.1520 H       
  87 H87            2.0503     1.3222    -2.6986 H       
  88 H88            1.9865     0.6513    -5.0591 H       
@<TRIPOS>BOND
   1    1   31 1
   2    2    3 ar
   3    2    7 ar
   4    2   53 1
   5    3    4 ar
   6    3   48 1
   7    4    5 ar
   8    4    8 1
   9    5    6 ar
  10    5   54 1
  11    6    7 ar
  12    6   55 1
  13    7   56 1
  14    8    9 1
  15    8   10 1
  16    8   28 1
  17    9   26 2
  18    9   27 am
  19   10   11 1
  20   10   57 1
  21   10   58 1
  22   11   12 am
  23   11   13 2
  24   12   14 1
  25   12   18 1
  26   14   15 1
  27   14   59 1
  28   14   60 1
  29   15   16 1
  30   15   61 1
  31   15   62 1
  32   16   17 1
  33   16   19 1
  34   16   63 1
  35   17   18 1
  36   17   64 1
  37   17   65 1
  38   18   66 1
  39   18   67 1
  40   19   20 1
  41   19   24 1
  42   20   21 1
  43   20   68 1
  44   20   69 1
  45   21   22 1
  46   21   70 1
  47   21   71 1
  48   22   23 1
  49   22   25 1
  50   23   24 1
  51   23   72 1
  52   23   73 1
  53   24   74 1
  54   24   75 1
  55   25   42 1
  56   25   76 1
  57   25   77 1
  58   27   45 am
  59   27   29 1
  60   28   29 ar
  61   28   30 ar
  62   29   33 ar
  63   30   31 ar
  64   30   78 1
  65   31   32 ar
  66   32   33 ar
  67   32   43 1
  68   33   79 1
  69   34   35 ar
  70   34   36 ar
  71   34   45 1
  72   35   41 1
  73   35   39 ar
  74   36   37 ar
  75   36   80 1
  76   37   38 ar
  77   37   81 1
  78   38   39 ar
  79   38   40 1
  80   39   82 1
  81   42   83 1
  82   42   84 1
  83   42   85 1
  84   43   44 3
  85   45   46 2
  86   45   47 2
  87   48   49 1
  88   49   50 1
  89   49   86 1
  90   49   87 1
  91   50   51 1
  92   50   52 1
  93   50   88 1

#	End of record

