#	Name: ASD04220022
#	Creating user name:	WinNT
#	Creation time:	15. 06. 2019 20:48

#	Modifying user name:	WinNT
#	Modification time:	15. 06. 2019 20:48

#	Program:	/corina/corina34_cracker 3.40 0067  02.08.2006

@<TRIPOS>MOLECULE
ASD04220022
  58   60    0    0    0
SMALL
NO_CHARGES


@<TRIPOS>ATOM
   1 C1             0.0411     1.6412    -0.0330 C.3     
   2 N2            -0.0508     0.1827     0.0935 N.am    
   3 C3             0.8131    -0.6267    -0.7821 C.3     
   4 C4             2.2653    -0.3385    -0.4043 C.3     
   5 C5             2.5058     1.1439    -0.2906 C.ar    
   6 C6             3.8237     1.5925    -0.3692 C.ar    
   7 C7             4.1160     2.9408    -0.2630 C.ar    
   8 C8             3.0949     3.8527    -0.0771 C.ar    
   9 C9             1.7853     3.4107    -0.0028 C.ar    
  10 C10            1.4895     2.0539    -0.1130 C.ar    
  11 C11            0.5147    -2.0901    -0.5812 C.2     
  12 O12            1.1747    -2.7404     0.1943 O.2     
  13 O13           -0.4843    -2.6712    -1.2639 O.3     
  14 O14            0.7797     4.3078     0.1794 O.3     
  15 C15            1.1494     5.6841     0.2853 C.3     
  16 O16            4.8307     0.6970    -0.5513 O.3     
  17 C17            6.1587     1.2198    -0.6235 C.3     
  18 C18           -0.8916    -0.3931     0.9755 C.2     
  19 O19           -1.0193    -1.5990     0.9931 O.2     
  20 C20           -1.6730     0.4615     1.9399 C.3     
  21 C21           -2.5316    -0.4197     2.8101 C.ar    
  22 C22           -1.9996    -0.9927     3.9559 C.ar    
  23 C23           -2.7898    -1.8032     4.7570 C.ar    
  24 C24           -4.1070    -2.0397     4.4141 C.ar    
  25 C25           -4.6390    -1.4666     3.2688 C.ar    
  26 C26           -3.8498    -0.6523     2.4699 C.ar    
  27 O27           -5.9355    -1.6994     2.9313 O.3     
  28 C28           -6.6910    -2.5439     3.8020 C.3     
  29 O29           -0.7030    -0.7599     4.2935 O.3     
  30 C30           -0.2215    -1.3819     5.4865 C.3     
  31 C31           -0.7148    -4.0839    -1.0202 C.3     
  32 H32           -0.4774     1.9603    -0.9371 H       
  33 H33           -0.4223     2.1105     0.8349 H       
  34 H34            0.6418    -0.3541    -1.8234 H       
  35 H35            2.4877    -0.8121     0.5519 H       
  36 H36            2.9232    -0.7508    -1.1693 H       
  37 H37            5.1397     3.2794    -0.3249 H       
  38 H38            3.3175     4.9060     0.0096 H       
  39 H39            1.8177     5.8164     1.1361 H       
  40 H40            1.6574     5.9950    -0.6276 H       
  41 H41            0.2551     6.2906     0.4280 H       
  42 H42            6.2304     1.9153    -1.4597 H       
  43 H43            6.3947     1.7413     0.3041 H       
  44 H44            6.8638     0.4016    -0.7698 H       
  45 H45           -0.9827     1.0278     2.5652 H       
  46 H46           -2.3075     1.1508     1.3827 H       
  47 H47           -2.3754    -2.2499     5.6487 H       
  48 H48           -4.7223    -2.6713     5.0377 H       
  49 H49           -4.2652    -0.2026     1.5802 H       
  50 H50           -7.7060    -2.6466     3.4180 H       
  51 H51           -6.2209    -3.5260     3.8536 H       
  52 H52           -6.7223    -2.1033     4.7985 H       
  53 H53           -0.3100    -2.4643     5.3930 H       
  54 H54            0.8242    -1.1147     5.6389 H       
  55 H55           -0.8113    -1.0412     6.3374 H       
  56 H56           -1.5477    -4.4273    -1.6338 H       
  57 H57            0.1820    -4.6479    -1.2766 H       
  58 H58           -0.9517    -4.2371     0.0326 H       
@<TRIPOS>BOND
   1    1    2 1
   2    1   10 1
   3    1   32 1
   4    1   33 1
   5    2    3 1
   6    2   18 am
   7    3    4 1
   8    3   11 1
   9    3   34 1
  10    4    5 1
  11    4   35 1
  12    4   36 1
  13    5    6 ar
  14    5   10 ar
  15    6    7 ar
  16    6   16 1
  17    7    8 ar
  18    7   37 1
  19    8    9 ar
  20    8   38 1
  21    9   10 ar
  22    9   14 1
  23   11   12 2
  24   11   13 1
  25   13   31 1
  26   14   15 1
  27   15   39 1
  28   15   40 1
  29   15   41 1
  30   16   17 1
  31   17   42 1
  32   17   43 1
  33   17   44 1
  34   18   19 2
  35   18   20 1
  36   20   21 1
  37   20   45 1
  38   20   46 1
  39   21   22 ar
  40   21   26 ar
  41   22   23 ar
  42   22   29 1
  43   23   24 ar
  44   23   47 1
  45   24   25 ar
  46   24   48 1
  47   25   26 ar
  48   25   27 1
  49   26   49 1
  50   27   28 1
  51   28   50 1
  52   28   51 1
  53   28   52 1
  54   29   30 1
  55   30   53 1
  56   30   54 1
  57   30   55 1
  58   31   56 1
  59   31   57 1
  60   31   58 1

#	End of record

