#	Name: ASD01870083
#	Creating user name:	WinNT
#	Creation time:	15. 06. 2019 19:38

#	Modifying user name:	WinNT
#	Modification time:	15. 06. 2019 19:38

#	Program:	/corina/corina34_cracker 3.40 0067  02.08.2006

@<TRIPOS>MOLECULE
ASD01870083
  40   42    0    0    0
SMALL
NO_CHARGES


@<TRIPOS>ATOM
   1 C1            -0.0168     1.3887     0.0097 C.ar    
   2 C2             0.0021    -0.0041     0.0020 C.ar    
   3 C3             1.1778    -0.6914    -0.0125 C.ar    
   4 C4             2.3959     0.0079    -0.0204 C.ar    
   5 C5             2.3748     1.4259    -0.0131 C.ar    
   6 C6             1.1430     2.1024     0.0024 C.ar    
   7 N7             3.5623    -0.6490    -0.0341 N.ar    
   8 C8             4.7084    -0.0175    -0.0413 C.ar    
   9 C9             4.7723     1.3918    -0.0348 C.ar    
  10 C10            3.5907     2.1295    -0.0210 C.ar    
  11 C11            6.0734     2.0754    -0.0422 C.2     
  12 Cl12           6.1827    -0.9340    -0.0585 Cl      
  13 C13            6.1273     3.4257    -0.0360 C.2     
  14 C14            7.4216     4.1056    -0.0433 C.2     
  15 O15            8.4510     3.4552    -0.0551 O.2     
  16 C16            7.4805     5.5813    -0.0365 C.ar    
  17 C17            8.7167     6.2333    -0.0435 C.ar    
  18 C18            8.7674     7.6092    -0.0371 C.ar    
  19 C19            7.5910     8.3499    -0.0237 C.ar    
  20 C20            6.3593     7.7052    -0.0167 C.ar    
  21 C21            6.3001     6.3297    -0.0289 C.ar    
  22 O22            7.6451     9.7059    -0.0170 O.3     
  23 C23           -1.2999    -0.7629     0.0104 C.3     
  24 C24            6.3988    10.4049    -0.0032 C.3     
  25 H25           -0.9631     1.9091     0.0170 H       
  26 H26            1.1736    -1.7714    -0.0175 H       
  27 H27            1.1163     3.1820     0.0078 H       
  28 H28            3.6088     3.2093    -0.0161 H       
  29 H29            6.9864     1.4986    -0.0526 H       
  30 H30            5.2143     4.0025    -0.0256 H       
  31 H31            9.6311     5.6586    -0.0536 H       
  32 H32            9.7223     8.1137    -0.0422 H       
  33 H33            5.4477     8.2842    -0.0063 H       
  34 H34            5.3428     5.8296    -0.0238 H       
  35 H35           -1.6236    -0.9404    -1.0152 H       
  36 H36           -1.1608    -1.7175     0.5178 H       
  37 H37           -2.0570    -0.1797     0.5346 H       
  38 H38            5.8234    10.1392    -0.8900 H       
  39 H39            5.8378    10.1297     0.8899 H       
  40 H40            6.5846    11.4789     0.0010 H       
@<TRIPOS>BOND
   1    1    2 ar
   2    1    6 ar
   3    1   25 1
   4    2    3 ar
   5    2   23 1
   6    3    4 ar
   7    3   26 1
   8    4    5 ar
   9    4    7 ar
  10    5    6 ar
  11    5   10 ar
  12    6   27 1
  13    7    8 ar
  14    8    9 ar
  15    8   12 1
  16    9   10 ar
  17    9   11 1
  18   10   28 1
  19   11   13 2
  20   11   29 1
  21   13   14 1
  22   13   30 1
  23   14   15 2
  24   14   16 1
  25   16   17 ar
  26   16   21 ar
  27   17   18 ar
  28   17   31 1
  29   18   19 ar
  30   18   32 1
  31   19   20 ar
  32   19   22 1
  33   20   21 ar
  34   20   33 1
  35   21   34 1
  36   22   24 1
  37   23   35 1
  38   23   36 1
  39   23   37 1
  40   24   38 1
  41   24   39 1
  42   24   40 1

#	End of record

