#	Name: ASD01913741
#	Creating user name:	WinNT
#	Creation time:	15. 06. 2019 20:02

#	Modifying user name:	WinNT
#	Modification time:	15. 06. 2019 20:02

#	Program:	/corina/corina34_cracker 3.40 0067  02.08.2006

@<TRIPOS>MOLECULE
ASD01913741
  42   43    0    0    0
SMALL
NO_CHARGES


@<TRIPOS>ATOM
   1 O1            -0.0163     1.3508     0.0095 O.3     
   2 C2             0.0021    -0.0041     0.0020 C.ar    
   3 N3             1.1629    -0.6408    -0.0125 N.ar    
   4 C4             1.2330    -1.9556    -0.0202 C.ar    
   5 C5             0.0719    -2.7293    -0.0137 C.ar    
   6 C6            -1.1744    -2.0856     0.0016 C.ar    
   7 C7            -1.1994    -0.7064     0.0154 C.ar    
   8 C8             0.1538    -4.2032    -0.0234 C.2     
   9 N9             1.3565    -4.8112    -0.0386 N.am    
  10 O10           -0.8637    -4.8686    -0.0177 O.2     
  11 C11            1.2480     2.0168     0.0010 C.3     
  12 C12            1.0303     3.5079     0.0111 C.ar    
  13 C13            0.9420     4.1849     1.2124 C.ar    
  14 C14            0.7419     5.5551     1.2214 C.ar    
  15 C15            0.6307     6.2452     0.0264 C.ar    
  16 C16            0.7194     5.5659    -1.1741 C.ar    
  17 C17            0.9247     4.1990    -1.1819 C.ar    
  18 F18            0.6550     6.2180     2.3954 F       
  19 H19            2.1684    -4.2803    -0.0432 H       
  20 C20            1.4378    -6.2739    -0.0482 C.3     
  21 C21            2.7655    -6.7069    -0.6732 C.3     
  22 C22            1.3543    -6.7988     1.3865 C.3     
  23 O23            3.8459    -6.2736     0.1557 O.3     
  24 C24            5.1380    -6.6292    -0.3405 C.3     
  25 H25            2.1983    -2.4397    -0.0320 H       
  26 H26           -2.0916    -2.6557     0.0069 H       
  27 H27           -2.1409    -0.1774     0.0278 H       
  28 H28            1.8174     1.7267     0.8840 H       
  29 H29            1.8004     1.7363    -0.8958 H       
  30 H30            1.0285     3.6455     2.1440 H       
  31 H31            0.4743     7.3138     0.0322 H       
  32 H32            0.6326     6.1040    -2.1065 H       
  33 H33            0.9942     3.6691    -2.1204 H       
  34 H34            0.6118    -6.6799    -0.6322 H       
  35 H35            2.7884    -7.7930    -0.7617 H       
  36 H36            2.8645    -6.2596    -1.6623 H       
  37 H37            1.4148    -7.8871     1.3794 H       
  38 H38            2.1803    -6.3928     1.9705 H       
  39 H39            0.4085    -6.4903     1.8318 H       
  40 H40            5.2100    -7.7137    -0.4221 H       
  41 H41            5.2861    -6.1803    -1.3226 H       
  42 H42            5.9033    -6.2647     0.3448 H       
@<TRIPOS>BOND
   1    1    2 1
   2    1   11 1
   3    2    3 ar
   4    2    7 ar
   5    3    4 ar
   6    4    5 ar
   7    4   25 1
   8    5    6 ar
   9    5    8 1
  10    6    7 ar
  11    6   26 1
  12    7   27 1
  13    8    9 am
  14    8   10 2
  15    9   19 1
  16    9   20 1
  17   11   12 1
  18   11   28 1
  19   11   29 1
  20   12   13 ar
  21   12   17 ar
  22   13   14 ar
  23   13   30 1
  24   14   15 ar
  25   14   18 1
  26   15   16 ar
  27   15   31 1
  28   16   17 ar
  29   16   32 1
  30   17   33 1
  31   20   21 1
  32   20   22 1
  33   20   34 1
  34   21   23 1
  35   21   35 1
  36   21   36 1
  37   22   37 1
  38   22   38 1
  39   22   39 1
  40   23   24 1
  41   24   40 1
  42   24   41 1
  43   24   42 1

#	End of record

