#	Name: ASD05060004
#	Creating user name:	WinNT
#	Creation time:	15. 06. 2019 20:56

#	Modifying user name:	WinNT
#	Modification time:	15. 06. 2019 20:56

#	Program:	/corina/corina34_cracker 3.40 0067  02.08.2006

@<TRIPOS>MOLECULE
ASD05060004
 128  128    0    0    0
SMALL
NO_CHARGES


@<TRIPOS>ATOM
   1 N1            -2.6828     4.6584    -2.3401 N.3     
   2 N2            -3.0719     3.5109    -3.1437 N.3     
   3 C3            -4.5338     3.4164    -3.2532 C.3     
   4 C4            -5.0808     2.6865    -2.0536 C.2     
   5 N5            -6.1990     3.1750    -1.4396 N.am    
   6 C6            -6.6711     2.4002    -0.2696 C.3     
   7 C7            -7.5142     3.3011     0.5958 C.2     
   8 N8            -7.5283     3.1015     1.9422 N.am    
   9 C9            -8.3716     4.0164     2.7369 C.3     
  10 C10           -7.5510     4.5736     3.8713 C.2     
  11 N11           -7.7294     5.8786     4.2329 N.am    
  12 C12           -6.8889     6.3470     5.3581 C.3     
  13 C13           -6.1497     7.5866     4.9243 C.2     
  14 N14           -4.9214     7.8428     5.4520 N.am    
  15 C15           -4.2456     9.0709     4.9885 C.3     
  16 C16           -2.8581     8.7153     4.5199 C.2     
  17 N17           -2.2245     9.5521     3.6458 N.am    
  18 C18           -0.8672     9.1297     3.2319 C.3     
  19 C19           -0.8059     9.1172     1.7262 C.2     
  20 C20           -0.1480     7.9877     1.0183 C.2     
  21 C21           -0.0896     7.9738    -0.4876 C.3     
  22 N22           -0.2954     6.5901    -0.9598 N.am    
  23 C23           -1.0453     6.4355    -2.0851 C.2     
  24 C24           -1.2929     5.0464    -2.6148 C.3     
  25 O25           -1.5080     7.4019    -2.6532 O.2     
  26 O26            0.3399     7.0812     1.6501 O.2     
  27 O27           -1.2916    10.0249     1.0944 O.2     
  28 O28           -2.3138     7.7049     4.9121 O.2     
  29 O29           -6.6421     8.3450     4.1160 O.2     
  30 O30           -6.7467     3.8762     4.4524 O.2     
  31 O31           -8.1713     4.1915     0.0994 O.2     
  32 O32           -4.5383     1.6833    -1.6410 O.2     
  33 C33           -0.3434     4.0622    -1.9287 C.3     
  34 C34            0.1669    10.1152     3.7800 C.3     
  35 C35            0.1732    10.0503     5.3086 C.3     
  36 C36            0.6526     8.6688     5.7584 C.3     
  37 C37            1.1155    11.1219     5.8607 C.3     
  38 C38           -5.1330     4.8230    -3.3113 C.3     
  39 C39           -4.5814     5.5623    -4.5320 C.3     
  40 C40           -5.0583     4.8662    -5.8083 C.3     
  41 C41           -5.0821     7.0080    -4.5219 C.3     
  42 C42           -8.8631     5.1615     1.8492 C.3     
  43 C43           -7.6643     5.8469     1.1904 C.3     
  44 C44           -7.2125     7.0258     2.0547 C.3     
  45 C45           -9.7909     4.6057     0.7670 C.3     
  46 C46           -7.5103     1.2125    -0.7449 C.3     
  47 C47           -6.6257     0.2476    -1.5370 C.3     
  48 C48           -7.4649    -0.9402    -2.0123 C.3     
  49 C49           -6.5804    -1.9051    -2.8044 C.3     
  50 N50           -7.3861    -3.0455    -3.2608 N.3     
  51 C51           -5.0357     9.6853     3.8313 C.3     
  52 C52           -5.0098     8.7478     2.6517 C.2     
  53 O53           -4.6263     7.6059     2.7929 O.2     
  54 N54           -5.4128     9.1783     1.4398 N.am    
  55 C55           -8.4354     5.4113     7.0557 C.2     
  56 C56           -7.7765     6.6731     6.5609 C.3     
  57 O57           -8.2174     4.3592     6.5031 O.2     
  58 O58           -9.2644     5.4563     8.1104 O.3     
  59 C59           -2.5378     8.3174    -0.6811 C.2     
  60 C60           -1.1884     8.8768    -1.0516 C.3     
  61 O61           -2.6137     7.2770    -0.0713 O.2     
  62 O62           -3.6553     8.9748    -1.0285 O.3     
  63 H63           -3.3109     5.4338    -2.4890 H       
  64 H64           -2.6425     3.5461    -4.0561 H       
  65 H65           -4.7959     2.8720    -4.1604 H       
  66 H66           -6.6527     3.9745    -1.7491 H       
  67 H67           -5.8148     2.0413     0.3012 H       
  68 H68           -7.0112     2.3941     2.3582 H       
  69 H69           -9.2255     3.4704     3.1378 H       
  70 H70           -8.3631     6.4589     3.7830 H       
  71 H71           -6.1735     5.5703     5.6283 H       
  72 H72           -4.5109     7.2485     6.0995 H       
  73 H73           -4.1820     9.7849     5.8096 H       
  74 H74           -2.6359    10.3672     3.3184 H       
  75 H75           -0.6624     8.1299     3.6148 H       
  76 H76            0.8854     8.3315    -0.8186 H       
  77 H77            0.0847     5.8300    -0.4921 H       
  78 H78           -1.1171     5.0310    -3.6904 H       
  79 H79           -0.5226     3.0575    -2.3116 H       
  80 H80            0.6879     4.3501    -2.1325 H       
  81 H81           -0.5191     4.0777    -0.8530 H       
  82 H82            1.1548     9.8533     3.4011 H       
  83 H83           -0.0888    11.1254     3.4603 H       
  84 H84           -0.8352    10.2250     5.6838 H       
  85 H85            0.6571     8.6225     6.8474 H       
  86 H86           -0.0187     7.9054     5.3651 H       
  87 H87            1.6610     8.4941     5.3832 H       
  88 H88            0.7740    12.1061     5.5402 H       
  89 H89            1.1200    11.0756     6.9497 H       
  90 H90            2.1239    10.9472     5.4854 H       
  91 H91           -6.2179     4.7529    -3.3886 H       
  92 H92           -4.8678     5.3686    -2.4056 H       
  93 H93           -3.4919     5.5550    -4.4995 H       
  94 H94           -6.1478     4.8736    -5.8407 H       
  95 H95           -4.6653     5.3929    -6.6779 H       
  96 H96           -4.7015     3.8363    -5.8154 H       
  97 H97           -4.7424     7.5039    -3.6127 H       
  98 H98           -4.6892     7.5347    -5.3916 H       
  99 H99           -6.1716     7.0154    -4.5544 H       
 100 H100          -9.4064     5.8850     2.4571 H       
 101 H101          -6.8462     5.1332     1.0930 H       
 102 H102          -7.9502     6.2089     0.2029 H       
 103 H103          -8.0857     7.5818     2.3960 H       
 104 H104          -6.6592     6.6533     2.9168 H       
 105 H105          -6.5707     7.6822     1.4670 H       
 106 H106         -10.8134     4.5786     1.1439 H       
 107 H107          -9.7454     5.2455    -0.1143 H       
 108 H108          -9.4751     3.5971     0.5006 H       
 109 H109          -7.9299     0.6955     0.1181 H       
 110 H110          -8.3187     1.5707    -1.3823 H       
 111 H111          -6.2062     0.7645    -2.4000 H       
 112 H112          -5.8173    -0.1106    -0.8997 H       
 113 H113          -7.8845    -1.4571    -1.1493 H       
 114 H114          -8.2733    -0.5820    -2.6497 H       
 115 H115          -6.1608    -1.3882    -3.6674 H       
 116 H116          -5.7719    -2.2633    -2.1670 H       
 117 H117          -8.1797    -2.7345    -3.8006 H       
 118 H118          -6.8241    -3.6978    -3.7869 H       
 119 H119          -6.0674     9.8493     4.1425 H       
 120 H120          -4.5857    10.6371     3.5490 H       
 121 H121          -5.7195    10.0916     1.3268 H       
 122 H122          -5.3961     8.5749     0.6805 H       
 123 H123          -7.1671     7.1010     7.3568 H       
 124 H124          -8.5419     7.3901     6.2638 H       
 125 H125          -9.6633     4.6213     8.3912 H       
 126 H126          -1.0840     9.8790    -0.6361 H       
 127 H127          -1.0996     8.9225    -2.1371 H       
 128 H128          -4.4975     8.5768    -0.7688 H       
@<TRIPOS>BOND
   1    1    2 1
   2    1   24 1
   3    1   63 1
   4    2    3 1
   5    2   64 1
   6    3    4 1
   7    3   38 1
   8    3   65 1
   9    4    5 am
  10    4   32 2
  11    5    6 1
  12    5   66 1
  13    6    7 1
  14    6   46 1
  15    6   67 1
  16    7    8 am
  17    7   31 2
  18    8    9 1
  19    8   68 1
  20    9   10 1
  21    9   42 1
  22    9   69 1
  23   10   11 am
  24   10   30 2
  25   11   12 1
  26   11   70 1
  27   12   13 1
  28   12   56 1
  29   12   71 1
  30   13   14 am
  31   13   29 2
  32   14   15 1
  33   14   72 1
  34   15   16 1
  35   15   51 1
  36   15   73 1
  37   16   17 am
  38   16   28 2
  39   17   18 1
  40   17   74 1
  41   18   19 1
  42   18   34 1
  43   18   75 1
  44   19   20 1
  45   19   27 2
  46   20   21 1
  47   20   26 2
  48   21   22 1
  49   21   60 1
  50   21   76 1
  51   22   23 am
  52   22   77 1
  53   23   24 1
  54   23   25 2
  55   24   33 1
  56   24   78 1
  57   33   79 1
  58   33   80 1
  59   33   81 1
  60   34   35 1
  61   34   82 1
  62   34   83 1
  63   35   36 1
  64   35   37 1
  65   35   84 1
  66   36   85 1
  67   36   86 1
  68   36   87 1
  69   37   88 1
  70   37   89 1
  71   37   90 1
  72   38   39 1
  73   38   91 1
  74   38   92 1
  75   39   40 1
  76   39   41 1
  77   39   93 1
  78   40   94 1
  79   40   95 1
  80   40   96 1
  81   41   97 1
  82   41   98 1
  83   41   99 1
  84   42   43 1
  85   42   45 1
  86   42  100 1
  87   43   44 1
  88   43  101 1
  89   43  102 1
  90   44  103 1
  91   44  104 1
  92   44  105 1
  93   45  106 1
  94   45  107 1
  95   45  108 1
  96   46   47 1
  97   46  109 1
  98   46  110 1
  99   47   48 1
 100   47  111 1
 101   47  112 1
 102   48   49 1
 103   48  113 1
 104   48  114 1
 105   49   50 1
 106   49  115 1
 107   49  116 1
 108   50  117 1
 109   50  118 1
 110   51   52 1
 111   51  119 1
 112   51  120 1
 113   52   53 2
 114   52   54 am
 115   54  121 1
 116   54  122 1
 117   55   56 1
 118   55   57 2
 119   55   58 1
 120   56  123 1
 121   56  124 1
 122   58  125 1
 123   59   60 1
 124   59   61 2
 125   59   62 1
 126   60  126 1
 127   60  127 1
 128   62  128 1

#	End of record

