#	Name: ASD02562101
#	Creating user name:	WinNT
#	Creation time:	15. 06. 2019 20:25

#	Modifying user name:	WinNT
#	Modification time:	15. 06. 2019 20:25

#	Program:	/corina/corina34_cracker 3.40 0067  02.08.2006

@<TRIPOS>MOLECULE
ASD02562101
  50   54    0    0    0
SMALL
NO_CHARGES


@<TRIPOS>ATOM
   1 C1             0.1016     1.8419    -0.7972 C.ar    
   2 N2             0.5332     0.9050    -1.6258 N.ar    
   3 C3            -0.1979     0.5404    -2.6744 C.ar    
   4 C4            -1.4379     1.1627    -2.8939 C.ar    
   5 C5            -1.8565     2.1527    -1.9875 C.ar    
   6 N6            -1.0652     2.4518    -0.9634 N.ar    
   7 N7            -3.0692     2.7986    -2.1562 N.pl3   
   8 N8             0.8931     2.1946     0.2851 N.pl3   
   9 C9            -3.5243     3.6980    -1.1847 C.ar    
  10 C10            2.0945     1.5273     0.5167 C.ar    
  11 C11            3.3030     2.2007     0.3639 C.ar    
  12 C12           -4.2774     4.8066    -1.5667 C.ar    
  13 C13           -4.4324     5.4879     0.7298 C.ar    
  14 C14           -3.6827     4.3762     1.1299 C.ar    
  15 C15           -3.2293     3.4777     0.1435 C.ar    
  16 C16            2.0822     0.1908     0.9056 C.ar    
  17 C17            3.2662    -0.4718     1.1357 C.ar    
  18 C18            4.4841     0.2002     0.9781 C.ar    
  19 C19            4.4916     1.5457     0.5919 C.ar    
  20 C20            3.3098     3.6491    -0.0524 C.3     
  21 C21            0.7705    -0.5313     1.0755 C.3     
  22 C22            5.7512    -0.5034     1.2232 C.2     
  23 C23            6.9246     0.1465     1.0706 C.2     
  24 C24            8.1590    -0.5389     1.3095 C.1     
  25 N25            9.1383    -1.0826     1.4990 N.1     
  26 N26           -0.0448    -0.3679    -3.6912 N.pl3   
  27 C27           -1.1530    -0.2860    -4.4827 C.2     
  28 N28           -1.9686     0.6123    -4.0132 N.2     
  29 C29           -4.7272     5.6935    -0.6162 C.ar    
  30 S30           -4.8486     6.4102     2.1714 S.3     
  31 C31           -4.0241     5.2882     3.1577 C.2     
  32 N32           -3.5076     4.3446     2.4650 N.2     
  33 H33           -3.6036     2.6280    -2.9475 H       
  34 H34            0.6106     2.9058     0.8812 H       
  35 H35           -4.5077     4.9696    -2.6092 H       
  36 H36           -2.6487     2.6131     0.4294 H       
  37 H37            3.2558    -1.5086     1.4378 H       
  38 H38            5.4290     2.0679     0.4691 H       
  39 H39            3.2781     4.2821     0.8344 H       
  40 H40            4.2177     3.8605    -0.6174 H       
  41 H41            2.4387     3.8523    -0.6752 H       
  42 H42            0.5312    -1.0705     0.1588 H       
  43 H43            0.8488    -1.2373     1.9023 H       
  44 H44           -0.0173     0.1914     1.2881 H       
  45 H45            5.7435    -1.5402     1.5254 H       
  46 H46            6.9323     1.1833     0.7684 H       
  47 H47            0.7125    -0.9594    -3.8233 H       
  48 H48           -1.3274    -0.8792    -5.3683 H       
  49 H49           -5.3104     6.5522    -0.9144 H       
  50 H50           -3.9474     5.3651     4.2323 H       
@<TRIPOS>BOND
   1    1    2 ar
   2    1    8 1
   3    1    6 ar
   4    2    3 ar
   5    3    4 ar
   6    3   26 1
   7    4    5 ar
   8    4   28 1
   9    5    6 ar
  10    5    7 1
  11    7    9 1
  12    7   33 1
  13    8   10 1
  14    8   34 1
  15    9   12 ar
  16    9   15 ar
  17   10   11 ar
  18   10   16 ar
  19   11   20 1
  20   11   19 ar
  21   12   29 ar
  22   12   35 1
  23   13   14 ar
  24   13   30 1
  25   13   29 ar
  26   14   15 ar
  27   14   32 1
  28   15   36 1
  29   16   17 ar
  30   16   21 1
  31   17   18 ar
  32   17   37 1
  33   18   19 ar
  34   18   22 1
  35   19   38 1
  36   20   39 1
  37   20   40 1
  38   20   41 1
  39   21   42 1
  40   21   43 1
  41   21   44 1
  42   22   23 2
  43   22   45 1
  44   23   24 1
  45   23   46 1
  46   24   25 3
  47   26   27 1
  48   26   47 1
  49   27   28 2
  50   27   48 1
  51   29   49 1
  52   30   31 1
  53   31   32 2
  54   31   50 1

#	End of record

