#	Name: ASD01916627
#	Creating user name:	WinNT
#	Creation time:	15. 06. 2019 20:07

#	Modifying user name:	WinNT
#	Modification time:	15. 06. 2019 20:07

#	Program:	/corina/corina34_cracker 3.40 0067  02.08.2006

@<TRIPOS>MOLECULE
ASD01916627
  34   36    0    0    0
SMALL
NO_CHARGES


@<TRIPOS>ATOM
   1 O1            -0.0161     1.3381     0.0094 O.3     
   2 C2             0.0021    -0.0041     0.0020 C.2     
   3 N3             1.2264    -0.4381    -0.0120 N.2     
   4 C4             2.0701     0.6294    -0.0143 C.ar    
   5 C5             1.2618     1.7767    -0.0004 C.ar    
   6 C6             1.8478     3.0330     0.0003 C.ar    
   7 C7             3.2223     3.1501    -0.0126 C.ar    
   8 C8             4.0244     2.0189    -0.0268 C.ar    
   9 C9             3.4591     0.7631    -0.0276 C.ar    
  10 C10           -1.2228    -0.8820     0.0098 C.3     
  11 C11           -1.6230    -1.1863     1.4548 C.3     
  12 C12           -2.8194    -2.0439     1.4624 C.1     
  13 C13           -3.7735    -2.7278     1.4684 C.1     
  14 C14           -4.9374    -3.5620     1.4758 C.ar    
  15 C15           -5.4881    -3.9715     2.6908 C.ar    
  16 C16           -6.6127    -4.7773     2.6811 C.ar    
  17 C17           -7.1516    -5.1487     1.4570 C.ar    
  18 C18           -6.5550    -4.7070     0.2905 C.ar    
  19 N19           -5.4876    -3.9357     0.3263 N.ar    
  20 C20            4.3369    -0.4618    -0.0420 C.3     
  21 H21            1.2295     3.9185     0.0106 H       
  22 H22            3.6769     4.1298    -0.0120 H       
  23 H23            5.0993     2.1235    -0.0375 H       
  24 H24           -2.0416    -0.3677    -0.4934 H       
  25 H25           -1.0047    -1.8144    -0.5109 H       
  26 H26           -0.8041    -1.7006     1.9580 H       
  27 H27           -1.8410    -0.2539     1.9755 H       
  28 H28           -5.0427    -3.6640     3.6253 H       
  29 H29           -7.0610    -5.1103     3.6055 H       
  30 H30           -8.0289    -5.7774     1.4161 H       
  31 H31           -6.9722    -4.9949    -0.6631 H       
  32 H32            4.5383    -0.7523    -1.0731 H       
  33 H33            5.2770    -0.2410     0.4635 H       
  34 H34            3.8303    -1.2779     0.4731 H       
@<TRIPOS>BOND
   1    1    2 1
   2    1    5 1
   3    2    3 2
   4    2   10 1
   5    3    4 1
   6    4    5 ar
   7    4    9 ar
   8    5    6 ar
   9    6    7 ar
  10    6   21 1
  11    7    8 ar
  12    7   22 1
  13    8    9 ar
  14    8   23 1
  15    9   20 1
  16   10   11 1
  17   10   24 1
  18   10   25 1
  19   11   12 1
  20   11   26 1
  21   11   27 1
  22   12   13 3
  23   13   14 1
  24   14   15 ar
  25   14   19 ar
  26   15   16 ar
  27   15   28 1
  28   16   17 ar
  29   16   29 1
  30   17   18 ar
  31   17   30 1
  32   18   19 ar
  33   18   31 1
  34   20   32 1
  35   20   33 1
  36   20   34 1

#	End of record

