#	Name: ASD04880126
#	Creating user name:	WinNT
#	Creation time:	15. 06. 2019 20:52

#	Modifying user name:	WinNT
#	Modification time:	15. 06. 2019 20:52

#	Program:	/corina/corina34_cracker 3.40 0067  02.08.2006

@<TRIPOS>MOLECULE
ASD04880126
  47   49    0    0    0
SMALL
NO_CHARGES


@<TRIPOS>ATOM
   1 C1            -0.0144     1.2121     0.0087 C.2     
   2 O2             0.0436    -0.0026    -0.0116 O.2     
   3 C3             1.2260     2.0104    -0.0175 C.ar    
   4 C4             2.4708     1.3773     0.0699 C.ar    
   5 C5             3.6293     2.1329     0.0447 C.ar    
   6 C6             3.5559     3.5136    -0.0665 C.ar    
   7 C7             2.3235     4.1434    -0.1529 C.ar    
   8 C8             1.1627     3.4012    -0.1355 C.ar    
   9 F9             4.6897     4.2478    -0.0903 F       
  10 F10            4.8331     1.5256     0.1288 F       
  11 F11            2.5410     0.0326     0.1791 F       
  12 N12           -1.2120     1.8289     0.0495 N.am    
  13 N13           -1.4128     3.2008     0.1878 N.2     
  14 C14           -2.6523     3.5527     0.2003 C.2     
  15 C15           -3.5267     2.3276     0.0566 C.3     
  16 C16           -2.5211     1.1642    -0.0510 C.3     
  17 C17           -4.4208     2.1590     1.2867 C.3     
  18 C18           -4.3726     2.4182    -1.2151 C.3     
  19 C19           -3.1423     4.9366     0.3347 C.ar    
  20 C20           -2.2348     5.9920     0.4615 C.ar    
  21 C21           -2.6997     7.2872     0.5871 C.ar    
  22 C22           -4.0704     7.5389     0.5873 C.ar    
  23 C23           -4.9712     6.4919     0.4620 C.ar    
  24 C24           -4.5147     5.1969     0.3299 C.ar    
  25 O25           -4.5256     8.8138     0.7111 O.3     
  26 C26           -5.9423     9.0004     0.7036 C.3     
  27 O27           -1.8195     8.3165     0.7111 O.3     
  28 C28           -0.4293     7.9857     0.7035 C.3     
  29 H29            2.2735     5.2188    -0.2389 H       
  30 H30            0.2046     3.8944    -0.2082 H       
  31 H31           -2.6206     0.6561    -1.0102 H       
  32 H32           -2.6593     0.4629     0.7719 H       
  33 H33           -5.0754     3.0254     1.3815 H       
  34 H34           -5.0242     1.2580     1.1765 H       
  35 H35           -3.7997     2.0736     2.1783 H       
  36 H36           -3.7176     2.5149    -2.0810 H       
  37 H37           -4.9762     1.5161    -1.3150 H       
  38 H38           -5.0265     3.2882    -1.1552 H       
  39 H39           -1.1728     5.7956     0.4615 H       
  40 H40           -6.0326     6.6914     0.4634 H       
  41 H41           -5.2183     4.3840     0.2273 H       
  42 H42           -6.1696    10.0612     0.8095 H       
  43 H43           -6.3522     8.6331    -0.2372 H       
  44 H44           -6.3857     8.4493     1.5329 H       
  45 H45            0.1613     8.8957     0.8095 H       
  46 H46           -0.2115     7.3125     1.5327 H       
  47 H47           -0.1773     7.4965    -0.2374 H       
@<TRIPOS>BOND
   1    1    2 2
   2    1    3 1
   3    1   12 am
   4    3    4 ar
   5    3    8 ar
   6    4    5 ar
   7    4   11 1
   8    5    6 ar
   9    5   10 1
  10    6    7 ar
  11    6    9 1
  12    7    8 ar
  13    7   29 1
  14    8   30 1
  15   12   13 1
  16   12   16 1
  17   13   14 2
  18   14   15 1
  19   14   19 1
  20   15   16 1
  21   15   17 1
  22   15   18 1
  23   16   31 1
  24   16   32 1
  25   17   33 1
  26   17   34 1
  27   17   35 1
  28   18   36 1
  29   18   37 1
  30   18   38 1
  31   19   20 ar
  32   19   24 ar
  33   20   21 ar
  34   20   39 1
  35   21   22 ar
  36   21   27 1
  37   22   23 ar
  38   22   25 1
  39   23   24 ar
  40   23   40 1
  41   24   41 1
  42   25   26 1
  43   26   42 1
  44   26   43 1
  45   26   44 1
  46   27   28 1
  47   28   45 1
  48   28   46 1
  49   28   47 1

#	End of record

