#	Name: ASD05720243
#	Creating user name:	WinNT
#	Creation time:	15. 06. 2019 21:02

#	Modifying user name:	WinNT
#	Modification time:	15. 06. 2019 21:02

#	Program:	/corina/corina34_cracker 3.40 0067  02.08.2006

@<TRIPOS>MOLECULE
ASD05720243
  48   52    0    0    0
SMALL
NO_CHARGES


@<TRIPOS>ATOM
   1 O1            -0.1057     1.1922     0.1319 O.3     
   2 C2             0.0760    -0.1229    -0.0318 C.2     
   3 N3             1.3629    -0.4849    -0.1233 N.am    
   4 C4             2.2045     0.7163    -0.0116 C.3     
   5 C5             1.1882     1.8613     0.1632 C.3     
   6 O6            -0.8419    -0.9166    -0.0921 O.2     
   7 C7             3.0264     0.9171    -1.2863 C.3     
   8 C8             2.0843     1.0618    -2.4831 C.3     
   9 C9             3.8768     2.1818    -1.1508 C.3     
  10 C10            3.5767    -3.2462    -0.6515 C.2     
  11 N11            3.1138    -2.0035    -0.4840 N.2     
  12 C12            1.8266    -1.7827    -0.2951 C.2     
  13 C13            0.9217    -2.8635    -0.2671 C.2     
  14 C14            1.3865    -4.1223    -0.4357 C.2     
  15 N15            2.7256    -4.3195    -0.6299 N.pl3   
  16 N16            3.4867    -5.4766    -0.8302 N.2     
  17 C17            4.7473    -5.1464    -0.9698 C.2     
  18 C18            4.8636    -3.7547    -0.8717 C.2     
  19 C19            6.1130    -2.9678    -0.9781 C.ar    
  20 C20            6.5874    -2.2553     0.1273 C.ar    
  21 C21            7.7511    -1.5229     0.0263 C.ar    
  22 C22            8.4540    -1.4933    -1.1783 C.ar    
  23 C23            7.9805    -2.2040    -2.2806 C.ar    
  24 C24            6.8210    -2.9411    -2.1801 C.ar    
  25 N25           11.5313     0.2362    -2.0253 N.pl3   
  26 N26           10.4540    -0.5989    -2.3634 N.2     
  27 C27            9.7055    -0.7050    -1.2869 C.2     
  28 N28           10.2611     0.0178    -0.3047 N.2     
  29 C29           11.3556     0.5852    -0.7382 C.2     
  30 F30            5.9058    -2.2842     1.2935 F       
  31 H31            2.8568     0.6472     0.8589 H       
  32 H32            1.2700     2.5735    -0.6579 H       
  33 H33            1.3367     2.3614     1.1202 H       
  34 H34            3.6774     0.0562    -1.4383 H       
  35 H35            1.3779     1.8699    -2.2938 H       
  36 H36            2.6650     1.2888    -3.3772 H       
  37 H37            1.5390     0.1296    -2.6310 H       
  38 H38            4.6074     2.0448    -0.3537 H       
  39 H39            4.3955     2.3732    -2.0902 H       
  40 H40            3.2332     3.0286    -0.9122 H       
  41 H41           -0.1326    -2.6880    -0.1120 H       
  42 H42            0.7078    -4.9622    -0.4168 H       
  43 H43            5.5625    -5.8349    -1.1367 H       
  44 H44            8.1183    -0.9719     0.8795 H       
  45 H45            8.5256    -2.1803    -3.2126 H       
  46 H46            6.4575    -3.4948    -3.0332 H       
  47 H47           12.2611     0.5050    -2.6049 H       
  48 H48           12.0074     1.2250    -0.1617 H       
@<TRIPOS>BOND
   1    1    2 1
   2    1    5 1
   3    2    3 am
   4    2    6 2
   5    3    4 1
   6    3   12 1
   7    4    5 1
   8    4    7 1
   9    4   31 1
  10    5   32 1
  11    5   33 1
  12    7    8 1
  13    7    9 1
  14    7   34 1
  15    8   35 1
  16    8   36 1
  17    8   37 1
  18    9   38 1
  19    9   39 1
  20    9   40 1
  21   10   11 1
  22   10   15 1
  23   10   18 2
  24   11   12 2
  25   12   13 1
  26   13   14 2
  27   13   41 1
  28   14   15 1
  29   14   42 1
  30   15   16 1
  31   16   17 2
  32   17   18 1
  33   17   43 1
  34   18   19 1
  35   19   20 ar
  36   19   24 ar
  37   20   21 ar
  38   20   30 1
  39   21   22 ar
  40   21   44 1
  41   22   23 ar
  42   22   27 1
  43   23   24 ar
  44   23   45 1
  45   24   46 1
  46   25   26 1
  47   25   29 1
  48   25   47 1
  49   26   27 2
  50   27   28 1
  51   28   29 2
  52   29   48 1

#	End of record

