#	Name: ASD04840066
#	Creating user name:	WinNT
#	Creation time:	15. 06. 2019 20:52

#	Modifying user name:	WinNT
#	Modification time:	15. 06. 2019 20:52

#	Program:	/corina/corina34_cracker 3.40 0067  02.08.2006

@<TRIPOS>MOLECULE
ASD04840066
  55   59    0    0    0
SMALL
NO_CHARGES


@<TRIPOS>ATOM
   1 C1            -0.0170     1.4008     0.0097 C.ar    
   2 C2             0.0021    -0.0041     0.0020 C.ar    
   3 C3             1.1940    -0.6614    -0.0128 C.ar    
   4 C4             2.3990     0.0381    -0.0201 C.ar    
   5 C5             2.4193     1.3992    -0.0125 C.ar    
   6 C6             1.2089     2.1124     0.0019 C.ar    
   7 C7             1.1898     3.5178     0.0090 C.ar    
   8 C8            -0.0019     4.1748     0.0234 C.ar    
   9 C9            -1.2073     3.4751     0.0312 C.ar    
  10 C10           -1.2278     2.1144     0.0193 C.ar    
  11 C11           -2.5418     1.3766     0.0216 C.3     
  12 O12           -3.6167     2.3181     0.0317 O.3     
  13 C13           -4.8764     1.8147     0.0350 C.ar    
  14 C14           -5.9814     2.6799     0.0449 C.ar    
  15 C15           -7.2777     2.1538     0.0478 C.ar    
  16 C16           -7.4692     0.8027     0.0414 C.ar    
  17 C17           -6.3741    -0.0648     0.0316 C.ar    
  18 C18           -5.0779     0.4451     0.0229 C.ar    
  19 C19           -5.7768     4.1381     0.0527 C.2     
  20 O20           -6.8390     4.9676     0.0622 O.3     
  21 O21           -4.6501     4.5936     0.0506 O.2     
  22 C22           -6.5920    -1.5308     0.0253 C.ar    
  23 C23           -5.4879    -2.3990     0.0154 C.ar    
  24 C24           -5.6610    -3.7458     0.0090 C.ar    
  25 C25           -6.9590    -4.2881     0.0127 C.ar    
  26 C26           -8.0815    -3.4209     0.0232 C.ar    
  27 C27           -7.8811    -2.0326     0.0349 C.ar    
  28 C28           -9.3780    -3.9675     0.0273 C.ar    
  29 C29           -9.5409    -5.3173     0.0213 C.ar    
  30 C30           -8.4356    -6.1742     0.0115 C.ar    
  31 C31           -7.1630    -5.6772     0.0067 C.ar    
  32 O32           -8.6300    -7.5188     0.0066 O.3     
  33 C33           -9.9830    -7.9787     0.0119 C.3     
  34 H34           -0.9241    -0.5595     0.0082 H       
  35 H35            1.2059    -1.7413    -0.0188 H       
  36 H36            3.3309    -0.5077    -0.0315 H       
  37 H37            3.3610     1.9281    -0.0175 H       
  38 H38            2.1159     4.0733     0.0034 H       
  39 H39           -0.0137     5.2548     0.0292 H       
  40 H40           -2.1391     4.0210     0.0427 H       
  41 H41           -2.6113     0.7554    -0.8714 H       
  42 H42           -2.6028     0.7459     0.9085 H       
  43 H43           -8.1288     2.8186     0.0554 H       
  44 H44           -8.4722     0.4020     0.0444 H       
  45 H45           -4.2322    -0.2264     0.0112 H       
  46 H46           -6.6547     5.9169     0.0670 H       
  47 H47           -4.4883    -1.9900     0.0125 H       
  48 H48           -4.8022    -4.4007     0.0007 H       
  49 H49           -8.7266    -1.3608     0.0469 H       
  50 H50          -10.2404    -3.3174     0.0356 H       
  51 H51          -10.5375    -5.7335     0.0245 H       
  52 H52           -6.3179    -6.3497    -0.0016 H       
  53 H53           -9.9962    -9.0686     0.0071 H       
  54 H54          -10.4875    -7.6131     0.9062 H       
  55 H55          -10.4972    -7.6052    -0.8737 H       
@<TRIPOS>BOND
   1    1    2 ar
   2    1    6 ar
   3    1   10 ar
   4    2    3 ar
   5    2   34 1
   6    3    4 ar
   7    3   35 1
   8    4    5 ar
   9    4   36 1
  10    5    6 ar
  11    5   37 1
  12    6    7 ar
  13    7    8 ar
  14    7   38 1
  15    8    9 ar
  16    8   39 1
  17    9   10 ar
  18    9   40 1
  19   10   11 1
  20   11   12 1
  21   11   41 1
  22   11   42 1
  23   12   13 1
  24   13   14 ar
  25   13   18 ar
  26   14   15 ar
  27   14   19 1
  28   15   16 ar
  29   15   43 1
  30   16   17 ar
  31   16   44 1
  32   17   18 ar
  33   17   22 1
  34   18   45 1
  35   19   20 1
  36   19   21 2
  37   20   46 1
  38   22   23 ar
  39   22   27 ar
  40   23   24 ar
  41   23   47 1
  42   24   25 ar
  43   24   48 1
  44   25   31 ar
  45   25   26 ar
  46   26   27 ar
  47   26   28 ar
  48   27   49 1
  49   28   29 ar
  50   28   50 1
  51   29   30 ar
  52   29   51 1
  53   30   31 ar
  54   30   32 1
  55   31   52 1
  56   32   33 1
  57   33   53 1
  58   33   54 1
  59   33   55 1

#	End of record

