#	Name: ASD04230035
#	Creating user name:	WinNT
#	Creation time:	15. 06. 2019 20:48

#	Modifying user name:	WinNT
#	Modification time:	15. 06. 2019 20:48

#	Program:	/corina/corina34_cracker 3.40 0067  02.08.2006

@<TRIPOS>MOLECULE
ASD04230035
  32   33    0    0    0
SMALL
NO_CHARGES


@<TRIPOS>ATOM
   1 N1            -0.0169     1.3927     0.0097 N.pl3   
   2 C2             1.2258    -2.0739    -0.0203 C.ar    
   3 C3             1.2121    -0.6813    -0.0132 C.ar    
   4 C4             0.0021    -0.0041     0.0020 C.ar    
   5 C5            -1.1920    -0.7157     0.0101 C.ar    
   6 C6            -1.1772    -2.0973     0.0034 C.ar    
   7 C7             0.0235    -2.7790    -0.0117 C.ar    
   8 C8             2.5164    -2.8048    -0.0427 C.ar    
   9 C9             2.7573    -3.8314     0.8751 C.ar    
  10 C10            3.9641    -4.5108     0.8493 C.ar    
  11 C11            4.9290    -4.1753    -0.0815 C.ar    
  12 C12            4.6955    -3.1568    -0.9946 C.ar    
  13 C13            3.4903    -2.4746    -0.9817 C.ar    
  14 O14            5.6495    -2.8317    -1.9074 O.3     
  15 C15            6.8665    -3.5797    -1.8683 C.3     
  16 O16            1.8093    -4.1620     1.7913 O.3     
  17 C17            2.1243    -5.2209     2.6977 C.3     
  18 H18            0.8165     1.8891     0.0044 H       
  19 H19           -0.8634     1.8662     0.0163 H       
  20 H20            2.1411    -0.1305    -0.0194 H       
  21 H21           -2.1339    -0.1873     0.0219 H       
  22 H22           -2.1076    -2.6458     0.0104 H       
  23 H23            0.0311    -3.8590    -0.0176 H       
  24 H24            4.1514    -5.3038     1.5581 H       
  25 H25            5.8686    -4.7077    -0.0981 H       
  26 H26            3.3078    -1.6851    -1.6957 H       
  27 H27            7.5392    -3.2200    -2.6469 H       
  28 H28            7.3387    -3.4546    -0.8939 H       
  29 H29            6.6498    -4.6350    -2.0343 H       
  30 H30            3.0092    -4.9536     3.2753 H       
  31 H31            1.2845    -5.3826     3.3735 H       
  32 H32            2.3194    -6.1342     2.1356 H       
@<TRIPOS>BOND
   1    1    4 1
   2    1   18 1
   3    1   19 1
   4    2    3 ar
   5    2    7 ar
   6    2    8 1
   7    3    4 ar
   8    3   20 1
   9    4    5 ar
  10    5    6 ar
  11    5   21 1
  12    6    7 ar
  13    6   22 1
  14    7   23 1
  15    8    9 ar
  16    8   13 ar
  17    9   10 ar
  18    9   16 1
  19   10   11 ar
  20   10   24 1
  21   11   12 ar
  22   11   25 1
  23   12   13 ar
  24   12   14 1
  25   13   26 1
  26   14   15 1
  27   15   27 1
  28   15   28 1
  29   15   29 1
  30   16   17 1
  31   17   30 1
  32   17   31 1
  33   17   32 1

#	End of record

