#	Name: ASD03430736
#	Creating user name:	WinNT
#	Creation time:	15. 06. 2019 20:41

#	Modifying user name:	WinNT
#	Modification time:	15. 06. 2019 20:41

#	Program:	/corina/corina34_cracker 3.40 0067  02.08.2006

@<TRIPOS>MOLECULE
ASD03430736
  56   61    0    0    0
SMALL
NO_CHARGES


@<TRIPOS>ATOM
   1 C1            -0.0167     1.3822     0.0096 C.ar    
   2 C2             0.0021    -0.0041     0.0020 C.ar    
   3 C3             1.2028    -0.6819    -0.0147 C.ar    
   4 C4             2.4086     0.0129    -0.0140 C.ar    
   5 C5             2.3861     1.4040    -0.0112 C.ar    
   6 C6             1.1815     2.0868     0.0020 C.ar    
   7 O7             3.4713    -0.8418    -0.0029 O.3     
   8 C8             1.5512    -2.1458    -0.0476 C.3     
   9 C9             3.0371    -2.1460    -0.4330 C.3     
  10 C10            0.4297    -3.8616     1.0111 C.ar    
  11 C11            1.3152    -2.8188     1.2718 C.ar    
  12 C12            0.7188    -2.9078    -1.0383 C.2     
  13 N13            0.1010    -3.8872    -0.3485 N.am    
  14 O14            0.6213    -2.6852    -2.2267 O.2     
  15 C15            1.7799    -2.5952     2.5523 C.ar    
  16 C16            1.3632    -3.4178     3.5962 C.ar    
  17 C17            0.4835    -4.4570     3.3416 C.ar    
  18 C18            0.0193    -4.6790     2.0605 C.ar    
  19 C19           -0.8085    -4.8643    -0.9520 C.3     
  20 O20           -1.2112     2.0356     0.0189 O.3     
  21 O21            1.1867     3.4484     0.0119 O.3     
  22 C22           -1.1863     3.4158     0.3994 C.3     
  23 C23           -0.0356     4.0995    -0.3509 C.3     
  24 O24            2.6439    -1.5733     2.7942 O.3     
  25 C25            2.0732    -0.3071     3.1303 C.3     
  26 O26            1.8185    -3.2019     4.8600 O.3     
  27 C27            1.3476    -4.0859     5.8792 C.3     
  28 C28           -2.2177    -4.3318    -0.9099 C.2     
  29 O29           -3.0986    -4.5190     0.0864 O.3     
  30 C30           -4.2530    -3.9022    -0.2148 C.2     
  31 C31           -4.1183    -3.3110    -1.4156 C.2     
  32 C32           -2.8045    -3.5835    -1.8612 C.2     
  33 C33           -5.4896    -3.8771     0.6462 C.3     
  34 F34           -6.3047    -4.9673     0.3235 F       
  35 F35           -5.1212    -3.9529     1.9937 F       
  36 F36           -6.1908    -2.6877     0.4206 F       
  37 H37           -0.9268    -0.5549     0.0096 H       
  38 H38            3.3148     1.9552    -0.0185 H       
  39 H39            3.1574    -2.2582    -1.5105 H       
  40 H40            3.5754    -2.9289     0.1012 H       
  41 H41            0.1595    -5.0969     4.1491 H       
  42 H42           -0.6665    -5.4917     1.8713 H       
  43 H43           -0.5174    -5.0404    -1.9875 H       
  44 H44           -0.7571    -5.8004    -0.3959 H       
  45 H45           -2.1315     3.8881     0.1319 H       
  46 H46           -1.0248     3.4980     1.4743 H       
  47 H47            0.0113     5.1521    -0.0714 H       
  48 H48           -0.1936     4.0108    -1.4257 H       
  49 H49            1.4763    -0.4067     4.0369 H       
  50 H50            2.8700     0.4176     3.2977 H       
  51 H51            1.4381     0.0337     2.3127 H       
  52 H52            1.7863    -3.8037     6.8362 H       
  53 H53            0.2615    -4.0200     5.9439 H       
  54 H54            1.6356    -5.1084     5.6348 H       
  55 H55           -4.8686    -2.7356    -1.9374 H       
  56 H56           -2.3597    -3.2587    -2.7902 H       
@<TRIPOS>BOND
   1    1    2 ar
   2    1    6 ar
   3    1   20 1
   4    2    3 ar
   5    2   37 1
   6    3    4 ar
   7    3    8 1
   8    4    5 ar
   9    4    7 1
  10    5    6 ar
  11    5   38 1
  12    6   21 1
  13    7    9 1
  14    8    9 1
  15    8   11 1
  16    8   12 1
  17    9   39 1
  18    9   40 1
  19   10   11 ar
  20   10   13 1
  21   10   18 ar
  22   11   15 ar
  23   12   13 am
  24   12   14 2
  25   13   19 1
  26   15   16 ar
  27   15   24 1
  28   16   17 ar
  29   16   26 1
  30   17   18 ar
  31   17   41 1
  32   18   42 1
  33   19   28 1
  34   19   43 1
  35   19   44 1
  36   20   22 1
  37   21   23 1
  38   22   23 1
  39   22   45 1
  40   22   46 1
  41   23   47 1
  42   23   48 1
  43   24   25 1
  44   25   49 1
  45   25   50 1
  46   25   51 1
  47   26   27 1
  48   27   52 1
  49   27   53 1
  50   27   54 1
  51   28   29 1
  52   28   32 2
  53   29   30 1
  54   30   31 2
  55   30   33 1
  56   31   32 1
  57   31   55 1
  58   32   56 1
  59   33   34 1
  60   33   35 1
  61   33   36 1

#	End of record

