#	Name: ASD01670043
#	Creating user name:	WinNT
#	Creation time:	15. 06. 2019 19:22

#	Modifying user name:	WinNT
#	Modification time:	15. 06. 2019 19:22

#	Program:	/corina/corina34_cracker 3.40 0067  02.08.2006

@<TRIPOS>MOLECULE
ASD01670043
  60   63    0    0    0
SMALL
NO_CHARGES


@<TRIPOS>ATOM
   1 C1            -0.5001    -0.2707     0.1503 C.ar    
   2 C2             3.0526    -5.1593    -5.1396 C.ar    
   3 C3            -0.2734    -1.6333     0.0964 C.ar    
   4 C4             0.5673     0.6073     0.1706 C.ar    
   5 C5             2.8819    -3.7942    -5.2745 C.ar    
   6 C6             4.0567    -5.6535    -4.3283 C.ar    
   7 C7             1.0209    -2.1178     0.0627 C.ar    
   8 C8             1.8615     0.1229     0.1369 C.ar    
   9 C9             3.7166    -2.9233    -4.5994 C.ar    
  10 C10            4.8917    -4.7826    -3.6536 C.ar    
  11 C11           10.5668    -0.9807    -3.8695 C.ar    
  12 C12           11.3382     0.1361    -3.5913 C.ar    
  13 C13           11.7426    -1.2813    -5.9443 C.ar    
  14 C14            2.0883    -1.2397     0.0825 C.ar    
  15 C15            4.7216    -3.4175    -3.7892 C.ar    
  16 C16           10.7616    -1.6888    -5.0346 C.ar    
  17 C17           12.3133     0.5528    -4.4810 C.ar    
  18 C18           12.5222    -0.1529    -5.6636 C.ar    
  19 C19           11.9550    -2.0364    -7.1924 C.2     
  20 C20            5.1783    -2.3439    -1.6223 C.2     
  21 C21            7.7957    -2.7174    -4.1468 C.2     
  22 C22           14.2054     1.2892    -5.4098 C.3     
  23 C23            9.5684    -3.9903    -3.0632 C.3     
  24 C24            3.4993    -1.7679     0.0469 C.3     
  25 C25            9.9183    -2.9026    -5.3289 C.3     
  26 C26            5.6321    -2.4680    -3.0540 C.3     
  27 N27            3.9405    -1.8885    -1.3449 N.am    
  28 N28            7.0038    -2.9815    -3.0887 N.am    
  29 N29            9.0575    -3.1897    -4.1787 N.am    
  30 O30           11.2731    -1.7990    -8.1696 O.2     
  31 O31           12.9053    -2.9900    -7.2495 O.3     
  32 O32            5.9268    -2.6539    -0.7198 O.2     
  33 O33            7.3717    -2.0529    -5.0726 O.2     
  34 O34           13.1884     1.6002    -4.4391 O.3     
  35 O35           13.5242     0.4502    -6.3615 O.3     
  36 H36           -1.5113     0.1079     0.1720 H       
  37 H37            2.3976    -5.8398    -5.6635 H       
  38 H38           -1.1073    -2.3193     0.0809 H       
  39 H39            0.3901     1.6719     0.2124 H       
  40 H40            2.0976    -3.4081    -5.9087 H       
  41 H41            4.1899    -6.7201    -4.2227 H       
  42 H42            1.1980    -3.1823     0.0214 H       
  43 H43            2.6955     0.8089     0.1521 H       
  44 H44            3.5837    -1.8567    -4.7054 H       
  45 H45            5.6767    -5.1687    -3.0202 H       
  46 H46            9.8115    -1.3002    -3.1668 H       
  47 H47           11.1775     0.6849    -2.6751 H       
  48 H48           14.5667     2.1982    -5.8907 H       
  49 H49           15.0286     0.7488    -4.9424 H       
  50 H50            9.2813    -5.0326    -3.2026 H       
  51 H51           10.6552    -3.9142    -3.0291 H       
  52 H52            9.1487    -3.6199    -2.1279 H       
  53 H53            4.1579    -1.0811     0.5786 H       
  54 H54            3.5329    -2.7469     0.5248 H       
  55 H55            9.3005    -2.7118    -6.2064 H       
  56 H56           10.5666    -3.7578    -5.5199 H       
  57 H57            5.5985    -1.4890    -3.5320 H       
  58 H58            3.3418    -1.6406    -2.0667 H       
  59 H59            7.3420    -3.5116    -2.3501 H       
  60 H60           13.0075    -3.4583    -8.0893 H       
@<TRIPOS>BOND
   1    1    3 ar
   2    1    4 ar
   3    1   36 1
   4    2    5 ar
   5    2    6 ar
   6    2   37 1
   7    3    7 ar
   8    3   38 1
   9    4    8 ar
  10    4   39 1
  11    5    9 ar
  12    5   40 1
  13    6   10 ar
  14    6   41 1
  15    7   14 ar
  16    7   42 1
  17    8   14 ar
  18    8   43 1
  19    9   15 ar
  20    9   44 1
  21   10   15 ar
  22   10   45 1
  23   11   12 ar
  24   11   16 ar
  25   11   46 1
  26   12   17 ar
  27   12   47 1
  28   13   16 ar
  29   13   18 ar
  30   13   19 1
  31   14   24 1
  32   15   26 1
  33   16   25 1
  34   17   18 ar
  35   17   34 1
  36   18   35 1
  37   19   30 2
  38   19   31 1
  39   20   26 1
  40   20   27 am
  41   20   32 2
  42   21   28 am
  43   21   29 am
  44   21   33 2
  45   22   34 1
  46   22   35 1
  47   22   48 1
  48   22   49 1
  49   23   29 1
  50   23   50 1
  51   23   51 1
  52   23   52 1
  53   24   27 1
  54   24   53 1
  55   24   54 1
  56   25   29 1
  57   25   55 1
  58   25   56 1
  59   26   28 1
  60   26   57 1
  61   27   58 1
  62   28   59 1
  63   31   60 1

#	End of record

