#	Name: ASD01880973
#	Creating user name:	WinNT
#	Creation time:	15. 06. 2019 19:41

#	Modifying user name:	WinNT
#	Modification time:	15. 06. 2019 19:41

#	Program:	/corina/corina34_cracker 3.40 0067  02.08.2006

@<TRIPOS>MOLECULE
ASD01880973
  52   55    0    0    0
SMALL
NO_CHARGES


@<TRIPOS>ATOM
   1 N1             0.0004     1.3136    -0.2014 N.ar    
   2 C2             0.0236    -0.0048    -0.2232 C.ar    
   3 N3             1.1384    -0.6836    -0.0320 N.ar    
   4 C4             2.2870    -0.0609     0.1911 C.ar    
   5 C5             2.3103     1.3197     0.2226 C.ar    
   6 C6             1.1133     2.0082     0.0165 C.ar    
   7 C7             3.5961     2.0646     0.4737 C.3     
   8 O8             4.6351     1.1321     0.7786 O.3     
   9 C9             5.8664     1.6430     1.0326 C.ar    
  10 C10            6.9236     0.7901     1.3364 C.ar    
  11 C11            8.1689     1.3069     1.5928 C.ar    
  12 C12            8.3845     2.6887     1.5509 C.ar    
  13 C13            7.3189     3.5420     1.2451 C.ar    
  14 C14            6.0714     3.0160     0.9833 C.ar    
  15 C15            9.4952     0.6799     1.9439 C.3     
  16 N16           10.4456     1.7880     2.0917 N.am    
  17 C17            9.8002     2.9448     1.8640 C.2     
  18 O18           10.3128     4.0464     1.9097 O.2     
  19 Cl19          -1.4534    -0.8706    -0.5107 Cl      
  20 Cl20           7.5680     5.2591     1.1893 Cl      
  21 N21            1.0854     3.3931     0.0383 N.3     
  22 C22           -0.1598     3.8854     0.6438 C.3     
  23 C23           -0.1170     5.4133     0.7215 C.3     
  24 N24            0.0626     5.9650    -0.6287 N.3     
  25 C25            1.3079     5.4727    -1.2343 C.3     
  26 C26            1.2650     3.9448    -1.3119 C.3     
  27 C27            0.0331     7.4335    -0.6056 C.3     
  28 C28           12.6851     1.5160     1.1471 C.3     
  29 C29           11.8646     1.6553     2.4310 C.3     
  30 H30            3.1939    -0.6264     0.3467 H       
  31 H31            3.8670     2.6322    -0.4165 H       
  32 H32            3.4626     2.7471     1.3131 H       
  33 H33            6.7640    -0.2775     1.3708 H       
  34 H34            5.2487     3.6745     0.7469 H       
  35 H35            9.4130     0.1292     2.8810 H       
  36 H36            9.8180     0.0134     1.1441 H       
  37 H37           -1.0082     3.5759     0.0334 H       
  38 H38           -0.2640     3.4730     1.6475 H       
  39 H39           -1.0517     5.7823     1.1437 H       
  40 H40            0.7152     5.7221     1.3542 H       
  41 H41            1.4120     5.8851    -2.2379 H       
  42 H42            2.1562     5.7822    -0.6238 H       
  43 H43            2.1997     3.5758    -1.7341 H       
  44 H44            0.4329     3.6360    -1.9446 H       
  45 H45            0.8357     7.8031     0.0325 H       
  46 H46            0.1683     7.8156    -1.6175 H       
  47 H47           -0.9267     7.7715    -0.2148 H       
  48 H48           12.5411     2.4002     0.5262 H       
  49 H49           13.7408     1.4173     1.3996 H       
  50 H50           12.3578     0.6313     0.6010 H       
  51 H51           12.1918     2.5400     2.9771 H       
  52 H52           12.0085     0.7711     3.0519 H       
@<TRIPOS>BOND
   1    1    2 ar
   2    1    6 ar
   3    2    3 ar
   4    2   19 1
   5    3    4 ar
   6    4    5 ar
   7    4   30 1
   8    5    6 ar
   9    5    7 1
  10    6   21 1
  11    7    8 1
  12    7   31 1
  13    7   32 1
  14    8    9 1
  15    9   10 ar
  16    9   14 ar
  17   10   11 ar
  18   10   33 1
  19   11   12 ar
  20   11   15 1
  21   12   13 ar
  22   12   17 1
  23   13   14 ar
  24   13   20 1
  25   14   34 1
  26   15   16 1
  27   15   35 1
  28   15   36 1
  29   16   17 am
  30   16   29 1
  31   17   18 2
  32   21   22 1
  33   21   26 1
  34   22   23 1
  35   22   37 1
  36   22   38 1
  37   23   24 1
  38   23   39 1
  39   23   40 1
  40   24   25 1
  41   24   27 1
  42   25   26 1
  43   25   41 1
  44   25   42 1
  45   26   43 1
  46   26   44 1
  47   27   45 1
  48   27   46 1
  49   27   47 1
  50   28   29 1
  51   28   48 1
  52   28   49 1
  53   28   50 1
  54   29   51 1
  55   29   52 1

#	End of record

