#	Name: ASD01913981
#	Creating user name:	WinNT
#	Creation time:	15. 06. 2019 20:02

#	Modifying user name:	WinNT
#	Modification time:	15. 06. 2019 20:02

#	Program:	/corina/corina34_cracker 3.40 0067  02.08.2006

@<TRIPOS>MOLECULE
ASD01913981
  39   42    0    0    0
SMALL
NO_CHARGES


@<TRIPOS>ATOM
   1 N1            -0.0540     1.2972     0.0089 N.2     
   2 N2            -0.0588     0.0061     0.0599 N.pl3   
   3 C3             1.1847    -0.4424     0.2977 C.2     
   4 C4             2.0040     0.6662     0.3930 C.2     
   5 C5             1.1703     1.7660     0.2038 C.2     
   6 C6             3.4775     0.5335     0.6483 C.3     
   7 C7             1.7746    -1.7837     0.4648 C.ar    
   8 C8             1.1002    -2.9491     0.1403 C.ar    
   9 C9             1.7268    -4.1698     0.3101 C.ar    
  10 C10            3.0200    -4.2218     0.8003 C.ar    
  11 C11            3.6972    -3.0639     1.1322 C.ar    
  12 C12            3.0847    -1.8308     0.9778 C.ar    
  13 O13            3.7243    -0.6931     1.3424 O.3     
  14 C14            1.5745     3.1867     0.2177 C.2     
  15 O15            2.7374     3.4860     0.4082 O.2     
  16 N16            0.6542     4.1511     0.0194 N.am    
  17 C17            1.0176     5.4991     0.1292 C.ar    
  18 C18            2.2751     5.9156    -0.2874 C.ar    
  19 C19            2.6328     7.2449    -0.1788 C.ar    
  20 C20            1.7363     8.1641     0.3464 C.ar    
  21 C21            0.4799     7.7487     0.7628 C.ar    
  22 C22            0.1187     6.4207     0.6495 C.ar    
  23 O23            2.0893     9.4728     0.4535 O.3     
  24 C24            1.1171    10.3642     1.0032 C.3     
  25 H25           -0.8420    -0.5544    -0.0558 H       
  26 H26            4.0129     0.5290    -0.3011 H       
  27 H27            3.8188     1.3713     1.2563 H       
  28 H28            0.0912    -2.9045    -0.2425 H       
  29 H29            1.2068    -5.0829     0.0605 H       
  30 H30            3.5055    -5.1784     0.9251 H       
  31 H31            4.7061    -3.1202     1.5133 H       
  32 H32           -0.2600     3.9115    -0.1995 H       
  33 H33            2.9733     5.2001    -0.6959 H       
  34 H34            3.6108     7.5690    -0.5024 H       
  35 H35           -0.2175     8.4649     1.1716 H       
  36 H36           -0.8612     6.0983     0.9692 H       
  37 H37            0.2212    10.3524     0.3824 H       
  38 H38            0.8627    10.0458     2.0142 H       
  39 H39            1.5256    11.3743     1.0324 H       
@<TRIPOS>BOND
   1    1    2 1
   2    1    5 2
   3    2    3 1
   4    2   25 1
   5    3    4 2
   6    3    7 1
   7    4    5 1
   8    4    6 1
   9    5   14 1
  10    6   13 1
  11    6   26 1
  12    6   27 1
  13    7    8 ar
  14    7   12 ar
  15    8    9 ar
  16    8   28 1
  17    9   10 ar
  18    9   29 1
  19   10   11 ar
  20   10   30 1
  21   11   12 ar
  22   11   31 1
  23   12   13 1
  24   14   15 2
  25   14   16 am
  26   16   17 1
  27   16   32 1
  28   17   18 ar
  29   17   22 ar
  30   18   19 ar
  31   18   33 1
  32   19   20 ar
  33   19   34 1
  34   20   21 ar
  35   20   23 1
  36   21   22 ar
  37   21   35 1
  38   22   36 1
  39   23   24 1
  40   24   37 1
  41   24   38 1
  42   24   39 1

#	End of record

