#	Name: ASD01910203
#	Creating user name:	WinNT
#	Creation time:	15. 06. 2019 19:55

#	Modifying user name:	WinNT
#	Modification time:	15. 06. 2019 19:55

#	Program:	/corina/corina34_cracker 3.40 0067  02.08.2006

@<TRIPOS>MOLECULE
ASD01910203
  40   43    0    0    0
SMALL
NO_CHARGES


@<TRIPOS>ATOM
   1 C1             0.1120     1.1795    -1.4179 C.ar    
   2 C2             0.1396    -0.1959    -1.2879 C.ar    
   3 C3             1.3349    -0.8551    -1.0441 C.ar    
   4 C4             2.5090    -0.1287    -0.9306 C.ar    
   5 C5             2.4809     1.2749    -1.0637 C.ar    
   6 C6             1.2792     1.9198    -1.3067 C.ar    
   7 C7             3.9221    -0.4828    -0.6814 C.2     
   8 N8             4.6522     0.6470    -0.6730 N.am    
   9 C9             3.8779     1.7253    -0.8908 C.2     
  10 O10            4.2626     2.8763    -0.9380 O.2     
  11 O11            4.3522    -1.6059    -0.5120 O.2     
  12 C12            6.0377     0.6945    -0.4649 C.ar    
  13 C13            6.7480    -0.4794    -0.2482 C.ar    
  14 C14            8.1146    -0.4382    -0.0419 C.ar    
  15 C15            8.7820     0.7693    -0.0503 C.ar    
  16 C16            8.0771     1.9548    -0.2677 C.ar    
  17 C17            6.6994     1.9122    -0.4809 C.ar    
  18 C18            8.7893     3.2502    -0.2768 C.2     
  19 N19           10.1213     3.2883    -0.0751 N.am    
  20 C20           10.8106     4.5017    -0.1807 C.ar    
  21 C21           10.2091     5.6817     0.2367 C.ar    
  22 C22           10.8913     6.8780     0.1321 C.ar    
  23 C23           12.1742     6.9013    -0.3885 C.ar    
  24 C24           12.7758     5.7259    -0.8057 C.ar    
  25 C25           12.0993     4.5267    -0.6976 C.ar    
  26 O26            8.1735     4.2811    -0.4663 O.2     
  27 F27           12.8398     8.0726    -0.4900 F       
  28 H28           -0.8246     1.6811    -1.6119 H       
  29 H29           -0.7762    -0.7614    -1.3765 H       
  30 H30            1.3505    -1.9302    -0.9427 H       
  31 H31            1.2517     2.9945    -1.4099 H       
  32 H32            6.2310    -1.4276    -0.2405 H       
  33 H33            8.6613    -1.3542     0.1268 H       
  34 H34            9.8494     0.7976     0.1116 H       
  35 H35            6.1488     2.8258    -0.6500 H       
  36 H36           10.6023     2.4747     0.1432 H       
  37 H37            9.2084     5.6640     0.6425 H       
  38 H38           10.4237     7.7960     0.4562 H       
  39 H39           13.7763     5.7463    -1.2118 H       
  40 H40           12.5688     3.6101    -1.0230 H       
@<TRIPOS>BOND
   1    1    2 ar
   2    1    6 ar
   3    1   28 1
   4    2    3 ar
   5    2   29 1
   6    3    4 ar
   7    3   30 1
   8    4    5 ar
   9    4    7 1
  10    5    6 ar
  11    5    9 1
  12    6   31 1
  13    7    8 am
  14    7   11 2
  15    8    9 am
  16    8   12 1
  17    9   10 2
  18   12   13 ar
  19   12   17 ar
  20   13   14 ar
  21   13   32 1
  22   14   15 ar
  23   14   33 1
  24   15   16 ar
  25   15   34 1
  26   16   17 ar
  27   16   18 1
  28   17   35 1
  29   18   19 am
  30   18   26 2
  31   19   20 1
  32   19   36 1
  33   20   21 ar
  34   20   25 ar
  35   21   22 ar
  36   21   37 1
  37   22   23 ar
  38   22   38 1
  39   23   24 ar
  40   23   27 1
  41   24   25 ar
  42   24   39 1
  43   25   40 1

#	End of record

