#	Name: ASD05430113
#	Creating user name:	WinNT
#	Creation time:	15. 06. 2019 20:59

#	Modifying user name:	WinNT
#	Modification time:	15. 06. 2019 20:59

#	Program:	/corina/corina34_cracker 3.40 0067  02.08.2006

@<TRIPOS>MOLECULE
ASD05430113
  73   79    0    0    0
SMALL
NO_CHARGES


@<TRIPOS>ATOM
   1 F1             7.7410     7.3274    -3.6122 F       
   2 C2             0.1642     1.1977    -0.9423 C.ar    
   3 C3             0.0183    -0.0031    -0.2862 C.ar    
   4 C4             1.0582    -0.5020     0.4960 C.ar    
   5 C5             2.2218     0.2277     0.5952 C.ar    
   6 C6             2.3674     1.4358    -0.0788 C.ar    
   7 C7             1.3253     1.9536    -0.8884 C.ar    
   8 C8             4.8699     0.0555    -0.2346 C.3     
   9 C9             4.8030     1.5380     0.0500 C.2     
  10 C10            3.6254     2.1894     0.0505 C.2     
  11 C11            6.2808    -0.3351    -0.6780 C.3     
  12 C12            7.0361     0.7921    -1.3892 C.3     
  13 N13            7.1521     1.9316    -0.4802 N.pl3   
  14 C14            6.0622     2.2509     0.3274 C.2     
  15 C15            8.1957     3.9800    -1.2597 C.ar    
  16 C16            9.2569     4.4425    -2.0154 C.ar    
  17 C17            9.1054     5.5660    -2.8056 C.ar    
  18 C18            7.8901     6.2286    -2.8403 C.ar    
  19 C19            6.8280     5.7646    -2.0830 C.ar    
  20 C20            6.9818     4.6408    -1.2935 C.ar    
  21 N21           -1.1761    -0.7241    -0.4044 N.pl3   
  22 C22           -1.9810    -1.1425     0.6240 C.2     
  23 C23           -3.0178    -1.7961     0.0666 C.2     
  24 N24           -2.8560    -1.7805    -1.2649 N.2     
  25 C25           -1.7599    -1.1365    -1.5599 C.2     
  26 C26           -4.1622    -2.4352     0.8102 C.3     
  27 C27            8.3603     2.7511    -0.4031 C.3     
  28 C28            8.5711     3.1643     1.0575 C.3     
  29 O29            7.3882     3.7684     1.5706 O.3     
  30 N30            6.1720     3.1188     1.2788 N.2     
  31 C31            7.0999    -0.9830     0.4423 C.3     
  32 S32            7.9641    -2.0040    -0.7832 S.o2    
  33 C33            6.3162    -1.6541    -1.4562 C.3     
  34 O34            8.9952    -1.2971    -1.4588 O.2     
  35 O35            8.1125    -3.3546    -0.3671 O.2     
  36 C36            1.3839     3.2229    -1.6993 C.3     
  37 C37            0.0017     3.8159    -2.0676 C.3     
  38 Si38          -1.0044     2.2096    -2.0289 Si      
  39 C39           -1.1809     1.4663    -3.7280 C.3     
  40 C40           -2.6626     2.4549    -1.2158 C.3     
  41 H41            0.9532    -1.4433     1.0150 H       
  42 H42            3.0325    -0.1430     1.2049 H       
  43 H43            4.6090    -0.4975     0.6678 H       
  44 H44            4.1614    -0.1928    -1.0248 H       
  45 H45            3.6032     3.2649     0.1458 H       
  46 H46            8.0310     0.4454    -1.6687 H       
  47 H47            6.4880     1.0920    -2.2824 H       
  48 H48           10.2048     3.9257    -1.9879 H       
  49 H49            9.9347     5.9273    -3.3957 H       
  50 H50            5.8796     6.2806    -2.1093 H       
  51 H51            6.1535     4.2786    -0.7027 H       
  52 H52           -1.8150    -0.9791     1.6786 H       
  53 H53           -1.3772    -0.9661    -2.5554 H       
  54 H54           -4.9647    -1.7084     0.9362 H       
  55 H55           -4.5316    -3.2898     0.2435 H       
  56 H56           -3.8179    -2.7696     1.7889 H       
  57 H57            9.2180     2.1741    -0.7489 H       
  58 H58            8.8136     2.2829     1.6512 H       
  59 H59            9.3950     3.8755     1.1167 H       
  60 H60            7.7570    -0.2800     0.9541 H       
  61 H61            6.4928    -1.5665     1.1344 H       
  62 H62            5.5591    -2.3660    -1.1273 H       
  63 H63            6.3157    -1.5139    -2.5371 H       
  64 H64            1.9402     3.9695    -1.1325 H       
  65 H65            1.9290     3.0191    -2.6210 H       
  66 H66           -0.3449     4.5242    -1.3150 H       
  67 H67            0.0082     4.2625    -3.0619 H       
  68 H68           -0.1932     1.2429    -4.1312 H       
  69 H69           -1.7636     0.5474    -3.6639 H       
  70 H70           -1.6893     2.1738    -4.3831 H       
  71 H71           -3.2648     3.1362    -1.8168 H       
  72 H72           -3.1726     1.4951    -1.1339 H       
  73 H73           -2.5205     2.8769    -0.2209 H       
@<TRIPOS>BOND
   1    1   18 1
   2    2    3 ar
   3    2    7 ar
   4    2   38 1
   5    3    4 ar
   6    3   21 1
   7    4    5 ar
   8    4   41 1
   9    5    6 ar
  10    5   42 1
  11    6    7 ar
  12    6   10 1
  13    7   36 1
  14    8    9 1
  15    8   11 1
  16    8   43 1
  17    8   44 1
  18    9   10 2
  19    9   14 1
  20   10   45 1
  21   11   12 1
  22   11   31 1
  23   11   33 1
  24   12   13 1
  25   12   46 1
  26   12   47 1
  27   13   14 1
  28   13   27 1
  29   14   30 2
  30   15   16 ar
  31   15   20 ar
  32   15   27 1
  33   16   17 ar
  34   16   48 1
  35   17   18 ar
  36   17   49 1
  37   18   19 ar
  38   19   20 ar
  39   19   50 1
  40   20   51 1
  41   21   22 1
  42   21   25 1
  43   22   23 2
  44   22   52 1
  45   23   24 1
  46   23   26 1
  47   24   25 2
  48   25   53 1
  49   26   54 1
  50   26   55 1
  51   26   56 1
  52   27   28 1
  53   27   57 1
  54   28   29 1
  55   28   58 1
  56   28   59 1
  57   29   30 1
  58   31   32 1
  59   31   60 1
  60   31   61 1
  61   32   33 1
  62   32   34 2
  63   32   35 2
  64   33   62 1
  65   33   63 1
  66   36   37 1
  67   36   64 1
  68   36   65 1
  69   37   38 1
  70   37   66 1
  71   37   67 1
  72   38   39 1
  73   38   40 1
  74   39   68 1
  75   39   69 1
  76   39   70 1
  77   40   71 1
  78   40   72 1
  79   40   73 1

#	End of record

