#	Name: ASD01915310
#	Creating user name:	WinNT
#	Creation time:	15. 06. 2019 20:05

#	Modifying user name:	WinNT
#	Modification time:	15. 06. 2019 20:05

#	Program:	/corina/corina34_cracker 3.40 0067  02.08.2006

@<TRIPOS>MOLECULE
ASD01915310
  36   39    0    0    0
SMALL
NO_CHARGES


@<TRIPOS>ATOM
   1 N1            -0.0163     1.3479     0.0095 N.2     
   2 C2             0.0021    -0.0041     0.0020 C.2     
   3 N3             1.2564    -0.3731    -0.0119 N.2     
   4 O4             1.9778     0.6020    -0.0136 O.3     
   5 C5             1.2404     1.7168    -0.0006 C.2     
   6 C6             1.7579     3.1322     0.0017 C.3     
   7 C7            -1.1803    -0.9013     0.0089 C.ar    
   8 C8            -1.0086    -2.2835    -0.0002 C.ar    
   9 C9            -2.1128    -3.1140     0.0062 C.ar    
  10 C10           -3.3872    -2.5740     0.0217 C.ar    
  11 C11           -3.5621    -1.2019     0.0308 C.ar    
  12 C12           -2.4657    -0.3637     0.0303 C.ar    
  13 N13            2.8426     3.2322     0.9662 N.am    
  14 C14            4.1446     3.6432     0.4052 C.3     
  15 S15            3.6566     4.5673    -1.1101 S.3     
  16 C16            2.1857     3.5072    -1.4355 C.3     
  17 C17            2.6710     2.9691     2.2768 C.2     
  18 O18            1.5773     2.6338     2.6920 O.2     
  19 C19            3.8022     3.0869     3.2027 C.2     
  20 Cl20          -1.9016    -4.8370    -0.0057 Cl      
  21 C21            3.7666     2.8511     4.5471 C.2     
  22 C22            5.0633     3.0830     5.0320 C.2     
  23 C23            5.8239     3.4456     3.9757 C.2     
  24 O24            5.0618     3.4416     2.8743 O.3     
  25 H25            0.9522     3.7984     0.3101 H       
  26 H26           -0.0145    -2.7053    -0.0126 H       
  27 H27           -4.2480    -3.2263     0.0264 H       
  28 H28           -4.5586    -0.7858     0.0425 H       
  29 H29           -2.6039     0.7074     0.0378 H       
  30 H30            4.6771     4.2930     1.0997 H       
  31 H31            4.7477     2.7720     0.1495 H       
  32 H32            2.4607     2.6202    -2.0061 H       
  33 H33            1.4021     4.0698    -1.9430 H       
  34 H34            2.9072     2.5457     5.1255 H       
  35 H35            5.3913     2.9893     6.0567 H       
  36 H36            6.8743     3.6942     4.0128 H       
@<TRIPOS>BOND
   1    1    2 1
   2    1    5 2
   3    2    3 2
   4    2    7 1
   5    3    4 1
   6    4    5 1
   7    5    6 1
   8    6   13 1
   9    6   16 1
  10    6   25 1
  11    7    8 ar
  12    7   12 ar
  13    8    9 ar
  14    8   26 1
  15    9   10 ar
  16    9   20 1
  17   10   11 ar
  18   10   27 1
  19   11   12 ar
  20   11   28 1
  21   12   29 1
  22   13   14 1
  23   13   17 am
  24   14   15 1
  25   14   30 1
  26   14   31 1
  27   15   16 1
  28   16   32 1
  29   16   33 1
  30   17   18 2
  31   17   19 1
  32   19   21 2
  33   19   24 1
  34   21   22 1
  35   21   34 1
  36   22   23 2
  37   22   35 1
  38   23   24 1
  39   23   36 1

#	End of record

