#	Name: ASD01478006
#	Creating user name:	WinNT
#	Creation time:	15. 06. 2019 19:21

#	Modifying user name:	WinNT
#	Modification time:	15. 06. 2019 19:21

#	Program:	/corina/corina34_cracker 3.40 0067  02.08.2006

@<TRIPOS>MOLECULE
ASD01478006
  83   86    0    0    0
SMALL
NO_CHARGES


@<TRIPOS>ATOM
   1 C1             1.5819     1.3426     1.9363 C.3     
   2 C2             3.0033     2.1332     0.1897 C.2     
   3 O3             2.7965     2.0176     1.5150 O.3     
   4 N4             4.1112     2.7490    -0.2683 N.am    
   5 O5             2.1911     1.6824    -0.5936 O.2     
   6 C6             3.6085     4.1147    -2.2339 C.3     
   7 C7             4.3362     2.8749    -1.7104 C.3     
   8 C8             5.8357     3.0107    -1.9827 C.3     
   9 C9             6.0813     3.0168    -3.4928 C.3     
  10 N10            7.5229     2.9989    -3.7532 N.am    
  11 S11            8.2969     1.5608    -4.0277 S.o2    
  12 C12            8.2447     1.2635    -5.7637 C.ar    
  13 C13            9.2622     1.7308    -6.5748 C.ar    
  14 C14            9.2236     1.4990    -7.9361 C.ar    
  15 C15            8.1627     0.7967    -8.4892 C.ar    
  16 C16            7.1430     0.3289    -7.6732 C.ar    
  17 C17            7.1891     0.5584    -6.3117 C.ar    
  18 O18            9.6629     1.7710    -3.6975 O.2     
  19 O19            7.4974     0.5532    -3.4238 O.2     
  20 C20            8.2797     4.2531    -3.7707 C.3     
  21 C21            7.7887     5.1290    -4.9251 C.3     
  22 C22            8.4714     6.4964    -4.8538 C.3     
  23 C23            8.1307     4.4570    -6.2564 C.3     
  24 O24            6.3136     4.2330    -1.4174 O.3     
  25 C25            1.8428    -0.1550     2.0870 C.3     
  26 O26            0.6693    -0.8102     1.6646 O.3     
  27 C27           -0.3283    -1.2150     2.5713 C.3     
  28 C28           -0.8321     0.1076     3.2312 C.3     
  29 C29            0.3240     0.6882     3.9107 C.3     
  30 C30            1.1463     1.8588     3.3122 C.3     
  31 C31            0.1724     1.2322     5.3487 C.3     
  32 O32            1.5206     1.6964     5.6374 O.3     
  33 C33            2.2042     2.0151     4.3984 C.3     
  34 C34            2.1213     3.9278    -2.0772 C.ar    
  35 C35            1.4924     4.3336    -0.9151 C.ar    
  36 C36            0.1282     4.1621    -0.7714 C.ar    
  37 C37           -0.6070     3.5853    -1.7900 C.ar    
  38 C38            0.0219     3.1803    -2.9525 C.ar    
  39 C39            1.3853     3.3558    -3.0980 C.ar    
  40 O40            8.1222     0.5678    -9.8282 O.3     
  41 C41            6.9999    -0.1620   -10.3279 C.3     
  42 H42            0.7903     1.5110     1.2062 H       
  43 H43            4.7596     3.1089     0.3570 H       
  44 H44            3.9265     4.9893    -1.6664 H       
  45 H45            3.8476     4.2586    -3.2876 H       
  46 H46            3.9539     1.9884    -2.2165 H       
  47 H47            6.3644     2.1708    -1.5320 H       
  48 H48            5.6205     2.1357    -3.9395 H       
  49 H49            5.6446     3.9155    -3.9284 H       
  50 H50           10.0877     2.2778    -6.1438 H       
  51 H51           10.0185     1.8645    -8.5694 H       
  52 H52            6.3160    -0.2181    -8.1013 H       
  53 H53            6.3955     0.1945    -5.6760 H       
  54 H54            8.1329     4.7792    -2.8274 H       
  55 H55            9.3395     4.0361    -3.9045 H       
  56 H56            6.7089     5.2576    -4.8498 H       
  57 H57            9.5511     6.3678    -4.9291 H       
  58 H58            8.1215     7.1204    -5.6762 H       
  59 H59            8.2277     6.9752    -3.9054 H       
  60 H60            7.6500     3.4799    -6.3042 H       
  61 H61            7.7747     5.0777    -7.0787 H       
  62 H62            9.2110     4.3347    -6.3347 H       
  63 H63            5.9518     5.0271    -1.8342 H       
  64 H64            2.6832    -0.4527     1.4599 H       
  65 H65            2.0499    -0.3950     3.1298 H       
  66 H66           -1.1434    -1.7089     2.0423 H       
  67 H67            0.0926    -1.8788     3.3264 H       
  68 H68           -1.1998     0.7917     2.4664 H       
  69 H69           -1.6204    -0.1096     3.9519 H       
  70 H70            1.0414    -0.1258     4.0151 H       
  71 H71            0.5389     2.7586     3.2151 H       
  72 H72           -0.5390     2.0575     5.3801 H       
  73 H73           -0.1223     0.4393     6.0362 H       
  74 H74            3.0261     1.3193     4.2295 H       
  75 H75            2.5736     3.0403     4.4225 H       
  76 H76            2.0668     4.7843    -0.1192 H       
  77 H77           -0.3631     4.4785     0.1369 H       
  78 H78           -1.6726     3.4507    -1.6774 H       
  79 H79           -0.5525     2.7294    -3.7482 H       
  80 H80            1.8760     3.0428    -4.0077 H       
  81 H81            6.9699    -1.1467    -9.8614 H       
  82 H82            6.0823     0.3783   -10.0953 H       
  83 H83            7.0914    -0.2745   -11.4082 H       
@<TRIPOS>BOND
   1    1   25 1
   2    1    3 1
   3    1   30 1
   4    1   42 1
   5    2    3 1
   6    2    4 am
   7    2    5 2
   8    4    7 1
   9    4   43 1
  10    6    7 1
  11    6   34 1
  12    6   44 1
  13    6   45 1
  14    7    8 1
  15    7   46 1
  16    8    9 1
  17    8   24 1
  18    8   47 1
  19    9   10 1
  20    9   48 1
  21    9   49 1
  22   10   11 am
  23   10   20 1
  24   11   12 1
  25   11   18 2
  26   11   19 2
  27   12   13 ar
  28   12   17 ar
  29   13   14 ar
  30   13   50 1
  31   14   15 ar
  32   14   51 1
  33   15   16 ar
  34   15   40 1
  35   16   17 ar
  36   16   52 1
  37   17   53 1
  38   20   21 1
  39   20   54 1
  40   20   55 1
  41   21   22 1
  42   21   23 1
  43   21   56 1
  44   22   57 1
  45   22   58 1
  46   22   59 1
  47   23   60 1
  48   23   61 1
  49   23   62 1
  50   24   63 1
  51   25   26 1
  52   25   64 1
  53   25   65 1
  54   26   27 1
  55   27   28 1
  56   27   66 1
  57   27   67 1
  58   28   29 1
  59   28   68 1
  60   28   69 1
  61   29   30 1
  62   29   31 1
  63   29   70 1
  64   30   33 1
  65   30   71 1
  66   31   32 1
  67   31   72 1
  68   31   73 1
  69   32   33 1
  70   33   74 1
  71   33   75 1
  72   34   35 ar
  73   34   39 ar
  74   35   36 ar
  75   35   76 1
  76   36   37 ar
  77   36   77 1
  78   37   38 ar
  79   37   78 1
  80   38   39 ar
  81   38   79 1
  82   39   80 1
  83   40   41 1
  84   41   81 1
  85   41   82 1
  86   41   83 1

#	End of record

