#	Name: ASD01816220
#	Creating user name:	WinNT
#	Creation time:	15. 06. 2019 19:34

#	Modifying user name:	WinNT
#	Modification time:	15. 06. 2019 19:34

#	Program:	/corina/corina34_cracker 3.40 0067  02.08.2006

@<TRIPOS>MOLECULE
ASD01816220
  57   62    0    0    0
SMALL
NO_CHARGES


@<TRIPOS>ATOM
   1 C1            -0.0167     1.3813     0.0096 C.ar    
   2 C2             0.0021    -0.0041     0.0020 C.ar    
   3 C3             1.1984    -0.6909    -0.0131 C.ar    
   4 C4             2.4015     0.0059    -0.0203 C.ar    
   5 C5             2.3790     1.4106    -0.0126 C.ar    
   6 C6             1.1663     2.0916     0.0022 C.ar    
   7 N7             3.6053    -0.6772    -0.0345 N.pl3   
   8 C8             4.7970    -0.0586    -0.0420 C.2     
   9 C9             4.9000     1.3103    -0.0361 C.2     
  10 C10            3.6670     2.1301    -0.0205 C.2     
  11 C11            5.9971     2.2729    -0.0415 C.2     
  12 N12            5.4246     3.4960    -0.0304 N.am    
  13 N13            4.0323     3.3799    -0.0179 N.2     
  14 C14            6.1265     4.7082    -0.0309 C.ar    
  15 C15            5.8873     5.6525     0.9617 C.ar    
  16 C16            7.0667     4.9675    -1.0190 C.ar    
  17 C17            7.7574     6.1637    -1.0169 C.ar    
  18 C18            7.5143     7.1036    -0.0320 C.ar    
  19 C19            6.5827     6.8481     0.9573 C.ar    
  20 F20            4.9771     5.4027     1.9283 F       
  21 O21            7.1914     2.0229    -0.0529 O.2     
  22 C22            3.5779    -2.1419    -0.0411 C.3     
  23 C23            3.5555    -2.6375    -1.4641 C.2     
  24 C24            4.6306    -2.9183    -2.2219 C.2     
  25 O25            4.1775    -3.3299    -3.4232 O.3     
  26 C26            2.8340    -3.2964    -3.3866 C.2     
  27 N27            2.4592    -2.8827    -2.1984 N.2     
  28 C28            1.9313    -3.6687    -4.4948 C.ar    
  29 C29            0.5481    -3.5892    -4.3296 C.ar    
  30 C30           -0.2899    -3.9383    -5.3683 C.ar    
  31 C31            0.2357    -4.3675    -6.5746 C.ar    
  32 C32            1.6041    -4.4504    -6.7504 C.ar    
  33 C33            2.4594    -4.0980    -5.7192 C.ar    
  34 C34            6.0737    -2.7955    -1.8056 C.3     
  35 O35            3.8040    -4.1791    -5.8908 O.3     
  36 C36            4.2693    -4.6366    -7.1621 C.3     
  37 H37           -0.9602     1.9068     0.0169 H       
  38 H38           -0.9289    -0.5516     0.0083 H       
  39 H39            1.2004    -1.7709    -0.0189 H       
  40 H40            1.1506     3.1715     0.0084 H       
  41 H41            5.6983    -0.6536    -0.0527 H       
  42 H42            7.2583     4.2342    -1.7884 H       
  43 H43            8.4887     6.3652    -1.7856 H       
  44 H44            8.0566     8.0375    -0.0330 H       
  45 H45            6.3950     7.5844     1.7248 H       
  46 H46            4.4656    -2.5242     0.4629 H       
  47 H47            2.6860    -2.4910     0.4793 H       
  48 H48            0.1340    -3.2551    -3.3897 H       
  49 H49           -1.3604    -3.8768    -5.2396 H       
  50 H50           -0.4271    -4.6393    -7.3829 H       
  51 H51            2.0072    -4.7865    -7.6944 H       
  52 H52            6.4067    -3.7362    -1.3671 H       
  53 H53            6.6852    -2.5648    -2.6780 H       
  54 H54            6.1732    -1.9967    -1.0707 H       
  55 H55            3.9145    -3.9634    -7.9426 H       
  56 H56            5.3592    -4.6542    -7.1653 H       
  57 H57            3.8892    -5.6410    -7.3482 H       
@<TRIPOS>BOND
   1    1    2 ar
   2    1    6 ar
   3    1   37 1
   4    2    3 ar
   5    2   38 1
   6    3    4 ar
   7    3   39 1
   8    4    5 ar
   9    4    7 1
  10    5    6 ar
  11    5   10 1
  12    6   40 1
  13    7    8 1
  14    7   22 1
  15    8    9 2
  16    8   41 1
  17    9   10 1
  18    9   11 1
  19   10   13 2
  20   11   12 am
  21   11   21 2
  22   12   13 1
  23   12   14 1
  24   14   15 ar
  25   14   16 ar
  26   15   20 1
  27   15   19 ar
  28   16   17 ar
  29   16   42 1
  30   17   18 ar
  31   17   43 1
  32   18   19 ar
  33   18   44 1
  34   19   45 1
  35   22   23 1
  36   22   46 1
  37   22   47 1
  38   23   24 2
  39   23   27 1
  40   24   25 1
  41   24   34 1
  42   25   26 1
  43   26   27 2
  44   26   28 1
  45   28   29 ar
  46   28   33 ar
  47   29   30 ar
  48   29   48 1
  49   30   31 ar
  50   30   49 1
  51   31   32 ar
  52   31   50 1
  53   32   33 ar
  54   32   51 1
  55   33   35 1
  56   34   52 1
  57   34   53 1
  58   34   54 1
  59   35   36 1
  60   36   55 1
  61   36   56 1
  62   36   57 1

#	End of record

