#	Name: ASD02610052
#	Creating user name:	WinNT
#	Creation time:	15. 06. 2019 20:25

#	Modifying user name:	WinNT
#	Modification time:	15. 06. 2019 20:25

#	Program:	/corina/corina34_cracker 3.40 0067  02.08.2006

@<TRIPOS>MOLECULE
ASD02610052
 112  118    0    0    0
SMALL
NO_CHARGES


@<TRIPOS>ATOM
   1 O1             0.6745     0.9901     0.9899 O.3     
   2 C2             1.9960     1.5708     1.1474 C.3     
   3 C3             2.0646     2.9493     0.4620 C.3     
   4 C4             2.2805     1.8739     2.6387 C.3     
   5 O5             1.0627     1.9787     3.3790 O.3     
   6 C6             2.9995     3.2447     2.5599 C.3     
   7 O7             2.3114     3.9250     1.4883 O.3     
   8 N8             2.8486     3.9795     3.8183 N.pl3   
   9 C9             3.2050     2.9670    -0.5578 C.3     
  10 C10            3.6378     3.8508     4.9332 C.ar    
  11 C11            3.1178     4.7476     5.8814 C.ar    
  12 N12            2.0580     5.3658     5.3072 N.2     
  13 C13            1.9020     4.9207     4.0942 C.2     
  14 N14            4.6957     3.1128     5.2542 N.ar    
  15 C15            5.2513     3.2179     6.4427 C.ar    
  16 N16            4.7981     4.0459     7.3664 N.ar    
  17 C17            3.7452     4.8234     7.1369 C.ar    
  18 N18            3.2775     5.6879     8.1111 N.pl3   
  19 O19            3.1881     4.2059    -1.2698 O.3     
  20 P20            4.2509     4.5689    -2.4235 P.3     
  21 O21            5.6848     4.4236    -1.8669 O.co2   
  22 O22            4.0624     3.6076    -3.6182 O.co2   
  23 O23            4.0158     6.0848    -2.9120 O.3     
  24 P24            4.8862     7.1299    -3.7735 P.3     
  25 O25            4.3636     8.6260    -3.4895 O.3     
  26 O26            6.3731     7.0183    -3.3690 O.co2   
  27 O27            4.7361     6.8087    -5.2773 O.co2   
  28 P28            4.9649    10.0929    -3.7702 P.3     
  29 O29            5.1858    10.2810    -5.3098 O.co2   
  30 O30            3.9607    11.1772    -3.2504 O.co2   
  31 O31            6.3335    10.2479    -3.0236 O.co2   
  32 C32            0.5982    -0.3535     0.9491 C.2     
  33 N33           -0.5985    -0.9564     0.8046 N.am    
  34 O34            1.6082    -1.0225     1.0426 O.2     
  35 C35           -0.6816    -2.4183     0.7602 C.3     
  36 C36           -2.1423    -2.8413     0.5915 C.3     
  37 N37           -2.2254    -4.3032     0.5471 N.am    
  38 C38           -3.4221    -4.9061     0.4026 C.2     
  39 C39           -7.8044    -9.7680    -1.0233 C.3     
  40 C40           -8.4959    -9.2311    -2.2771 C.3     
  41 C41           -7.6207    -9.5215    -3.4988 C.3     
  42 C42           -7.4303   -11.0328    -3.6341 C.3     
  43 C43           -6.7444   -11.5828    -2.3808 C.3     
  44 C44           -7.6005   -11.2801    -1.1501 C.3     
  45 C45           -8.6954    -7.7202    -2.1408 C.3     
  46 C46           -9.3786    -7.1795    -3.3984 C.3     
  47 C47           -8.5026    -7.4692    -4.6189 C.3     
  48 C48           -8.3041    -8.9799    -4.7561 C.3     
  49 N49           -3.4985    -6.2511     0.3617 N.am    
  50 C50           -4.7993    -6.9064     0.2047 C.3     
  51 C51           -5.1533    -6.9876    -1.2816 C.3     
  52 C52           -6.5119    -7.6720    -1.4456 C.3     
  53 C53           -6.4459    -9.0836    -0.8592 C.3     
  54 C54           -6.0918    -9.0025     0.6270 C.3     
  55 C55           -4.7333    -8.3180     0.7911 C.3     
  56 S56           -4.8451    -3.9635     0.2709 S.2     
  57 O57           -9.1401    -6.9638    -5.7937 O.3     
  58 C58           -6.5872   -13.1008    -2.5353 C.3     
  59 C59           -6.0476   -13.6692    -1.2428 C.2     
  60 C60           -6.7581   -13.3122     0.0445 C.3     
  61 C61           -6.8968   -11.7886     0.1114 C.3     
  62 O62           -5.0773   -14.3880    -1.2377 O.2     
  63 C63           -7.1462    -8.2062     1.3518 C.2     
  64 O64           -8.1217    -7.7942     0.7476 O.co2   
  65 O65           -7.0238    -7.9741     2.5425 O.co2   
  66 H66            2.7558     0.9039     0.7399 H       
  67 H67            1.1180     3.1642    -0.0338 H       
  68 H68            2.9331     1.1161     3.0721 H       
  69 H69            1.1889     2.1679     4.3189 H       
  70 H70            4.0541     3.1117     2.3186 H       
  71 H71            4.1578     2.8589    -0.0394 H       
  72 H72            3.0777     2.1428    -1.2596 H       
  73 H73            1.1312     5.2436     3.4100 H       
  74 H74            6.1097     2.6037     6.6713 H       
  75 H75            3.7193     5.7313     8.9735 H       
  76 H76            2.5080     6.2504     7.9314 H       
  77 H77           -1.4048    -0.4223     0.7300 H       
  78 H78           -0.0962    -2.7902    -0.0807 H       
  79 H79           -0.2882    -2.8330     1.6884 H       
  80 H80           -2.7277    -2.4694     1.4324 H       
  81 H81           -2.5357    -2.4266    -0.3367 H       
  82 H82           -1.4191    -4.8373     0.6216 H       
  83 H83           -8.4226    -9.5578    -0.1504 H       
  84 H84           -9.4629    -9.7197    -2.3973 H       
  85 H85           -6.6500    -9.0419    -3.3736 H       
  86 H86           -8.4022   -11.5112    -3.7548 H       
  87 H87           -6.8128   -11.2436    -4.5072 H       
  88 H88           -5.7647   -11.1187    -2.2672 H       
  89 H89           -8.5686   -11.7705    -1.2508 H       
  90 H90           -9.3189    -7.5131    -1.2712 H       
  91 H91           -7.7268    -7.2357    -2.0169 H       
  92 H92          -10.3469    -7.6642    -3.5228 H       
  93 H93           -9.5208    -6.1032    -3.3004 H       
  94 H94           -7.5339    -6.9852    -4.4942 H       
  95 H95           -7.6808    -9.1869    -5.6261 H       
  96 H96           -9.2729    -9.4638    -4.8801 H       
  97 H97           -2.6922    -6.7852     0.4363 H       
  98 H98           -5.5619    -6.3305     0.7289 H       
  99 H99           -5.2004    -5.9819    -1.6993 H       
 100 H100          -4.3907    -7.5635    -1.8058 H       
 101 H101          -7.2745    -7.0961    -0.9214 H       
 102 H102          -6.7641    -7.7298    -2.5045 H       
 103 H103          -5.6833    -9.6595    -1.3835 H       
 104 H104          -6.0448   -10.0081     1.0448 H       
 105 H105          -3.9707    -8.8940     0.2668 H       
 106 H106          -4.4811    -8.2602     1.8499 H       
 107 H107          -7.5568   -13.5480    -2.7544 H       
 108 H108          -5.8921   -13.3153    -3.3471 H       
 109 H109          -7.7463   -13.7719     0.0583 H       
 110 H110          -6.1761   -13.6658     0.8956 H       
 111 H111          -5.9073   -11.3369     0.1820 H       
 112 H112          -7.4830   -11.5157     0.9889 H       
@<TRIPOS>BOND
   1    1   32 1
   2    1    2 1
   3    2    3 1
   4    2    4 1
   5    2   66 1
   6    3    7 1
   7    3    9 1
   8    3   67 1
   9    4    5 1
  10    4    6 1
  11    4   68 1
  12    5   69 1
  13    6    8 1
  14    6    7 1
  15    6   70 1
  16    8   10 1
  17    8   13 1
  18    9   19 1
  19    9   71 1
  20    9   72 1
  21   10   11 ar
  22   10   14 ar
  23   11   12 1
  24   11   17 ar
  25   12   13 2
  26   13   73 1
  27   14   15 ar
  28   15   16 ar
  29   15   74 1
  30   16   17 ar
  31   17   18 1
  32   18   75 1
  33   18   76 1
  34   19   20 1
  35   20   21 ar
  36   20   22 ar
  37   20   23 1
  38   23   24 1
  39   24   25 1
  40   24   26 ar
  41   24   27 ar
  42   25   28 1
  43   28   29 ar
  44   28   30 ar
  45   28   31 ar
  46   32   33 am
  47   32   34 2
  48   33   35 1
  49   33   77 1
  50   35   36 1
  51   35   78 1
  52   35   79 1
  53   36   37 1
  54   36   80 1
  55   36   81 1
  56   37   38 am
  57   37   82 1
  58   38   49 am
  59   38   56 2
  60   39   40 1
  61   39   44 1
  62   39   53 1
  63   39   83 1
  64   40   41 1
  65   40   45 1
  66   40   84 1
  67   41   42 1
  68   41   48 1
  69   41   85 1
  70   42   43 1
  71   42   86 1
  72   42   87 1
  73   43   44 1
  74   43   58 1
  75   43   88 1
  76   44   61 1
  77   44   89 1
  78   45   46 1
  79   45   90 1
  80   45   91 1
  81   46   47 1
  82   46   92 1
  83   46   93 1
  84   47   48 1
  85   47   57 1
  86   47   94 1
  87   48   95 1
  88   48   96 1
  89   49   50 1
  90   49   97 1
  91   50   51 1
  92   50   55 1
  93   50   98 1
  94   51   52 1
  95   51   99 1
  96   51  100 1
  97   52   53 1
  98   52  101 1
  99   52  102 1
 100   53   54 1
 101   53  103 1
 102   54   55 1
 103   54   63 1
 104   54  104 1
 105   55  105 1
 106   55  106 1
 107   58   59 1
 108   58  107 1
 109   58  108 1
 110   59   60 1
 111   59   62 2
 112   60   61 1
 113   60  109 1
 114   60  110 1
 115   61  111 1
 116   61  112 1
 117   63   64 ar
 118   63   65 ar

#	End of record

