#	Name: ASD02030216
#	Creating user name:	WinNT
#	Creation time:	15. 06. 2019 20:14

#	Modifying user name:	WinNT
#	Modification time:	15. 06. 2019 20:14

#	Program:	/corina/corina34_cracker 3.40 0067  02.08.2006

@<TRIPOS>MOLECULE
ASD02030216
  59   63    0    0    0
SMALL
NO_CHARGES


@<TRIPOS>ATOM
   1 N1            -0.0438     1.8303     0.0650 N.am    
   2 C2             0.1892     0.3984    -0.1701 C.3     
   3 C3            -0.5693    -0.4029     0.8952 C.3     
   4 N4            -1.9529     0.0889     0.9561 N.am    
   5 C5            -2.1859     1.5208     1.1912 C.3     
   6 C6            -1.4275     2.3212     0.1315 C.3     
   7 C7             0.9927     2.6772     0.2223 C.2     
   8 C8             2.3744     2.1536     0.2697 C.2     
   9 N9             3.4574     2.8510     0.5375 N.2     
  10 N10            2.7454     0.8785     0.0521 N.2     
  11 C11            4.0461     0.8236     0.1861 C.2     
  12 N12            4.4774     2.0651     0.4898 N.pl3   
  13 C13            5.8095     2.4372     0.7152 C.ar    
  14 O14            0.7915     3.8716     0.3253 O.2     
  15 C15           -2.9894    -0.7580     0.7988 C.2     
  16 C16           -2.7436    -2.1609     0.4420 C.2     
  17 O17           -4.1289    -0.3600     0.9525 O.2     
  18 C18            6.1212     3.7548     1.0212 C.ar    
  19 C19            7.4364     4.1187     1.2430 C.ar    
  20 C20            8.4410     3.1707     1.1596 C.ar    
  21 C21            8.1325     1.8577     0.8545 C.ar    
  22 C22            6.8197     1.4873     0.6385 C.ar    
  23 C23           -3.6828     1.8208     1.0903 C.3     
  24 Cl24           7.8279     5.7661     1.6257 Cl      
  25 C25           -3.7052    -3.0676     0.1262 C.2     
  26 C26           -3.0052    -4.3192    -0.1562 C.ar    
  27 C27           -1.6367    -4.0399     0.0223 C.ar    
  28 O28           -1.5276    -2.7433     0.3724 O.3     
  29 C29           -3.4177    -5.6012    -0.5314 C.ar    
  30 C30           -2.4892    -6.5826    -0.7244 C.ar    
  31 C31           -1.1327    -6.3142    -0.5493 C.ar    
  32 C32           -0.7065    -5.0513    -0.1783 C.ar    
  33 O33           -0.2208    -7.3017    -0.7444 O.3     
  34 C34           -0.7243    -8.5835    -1.1259 C.3     
  35 C35           -5.1927    -2.8306     0.0775 C.3     
  36 H36           -0.1750     0.1263    -1.1608 H       
  37 H37            1.2556     0.1847    -0.0983 H       
  38 H38           -0.5681    -1.4596     0.6279 H       
  39 H39           -0.0900    -0.2677     1.8648 H       
  40 H40           -1.8217     1.7929     2.1818 H       
  41 H41           -1.4295     3.3776     0.4000 H       
  42 H42           -1.9047     2.1870    -0.8393 H       
  43 H43            4.6621    -0.0567     0.0766 H       
  44 H44            5.3372     4.4949     1.0855 H       
  45 H45            9.4678     3.4568     1.3329 H       
  46 H46            8.9187     1.1201     0.7894 H       
  47 H47            6.5799     0.4615     0.4006 H       
  48 H48           -4.2074     1.3319     1.9112 H       
  49 H49           -3.8422     2.8976     1.1473 H       
  50 H50           -4.0651     1.4466     0.1406 H       
  51 H51           -4.4676    -5.8143    -0.6676 H       
  52 H52           -2.8074    -7.5732    -1.0143 H       
  53 H53            0.3467    -4.8527    -0.0450 H       
  54 H54            0.1066    -9.2783    -1.2487 H       
  55 H55           -1.3969    -8.9545    -0.3526 H       
  56 H56           -1.2664    -8.4954    -2.0674 H       
  57 H57           -5.4767    -2.5084    -0.9243 H       
  58 H58           -5.7160    -3.7545     0.3240 H       
  59 H59           -5.4612    -2.0577     0.7976 H       
@<TRIPOS>BOND
   1    1    2 1
   2    1    7 am
   3    1    6 1
   4    2    3 1
   5    2   36 1
   6    2   37 1
   7    3    4 1
   8    3   38 1
   9    3   39 1
  10    4    5 1
  11    4   15 am
  12    5    6 1
  13    5   23 1
  14    5   40 1
  15    6   41 1
  16    6   42 1
  17    7    8 1
  18    7   14 2
  19    8    9 2
  20    8   10 1
  21    9   12 1
  22   10   11 2
  23   11   12 1
  24   11   43 1
  25   12   13 1
  26   13   18 ar
  27   13   22 ar
  28   15   16 1
  29   15   17 2
  30   16   25 2
  31   16   28 1
  32   18   19 ar
  33   18   44 1
  34   19   20 ar
  35   19   24 1
  36   20   21 ar
  37   20   45 1
  38   21   22 ar
  39   21   46 1
  40   22   47 1
  41   23   48 1
  42   23   49 1
  43   23   50 1
  44   25   26 1
  45   25   35 1
  46   26   27 ar
  47   26   29 ar
  48   27   28 1
  49   27   32 ar
  50   29   30 ar
  51   29   51 1
  52   30   31 ar
  53   30   52 1
  54   31   32 ar
  55   31   33 1
  56   32   53 1
  57   33   34 1
  58   34   54 1
  59   34   55 1
  60   34   56 1
  61   35   57 1
  62   35   58 1
  63   35   59 1

#	End of record

