#	Name: ASD02500097
#	Creating user name:	WinNT
#	Creation time:	15. 06. 2019 20:22

#	Modifying user name:	WinNT
#	Modification time:	15. 06. 2019 20:22

#	Program:	/corina/corina34_cracker 3.40 0067  02.08.2006

@<TRIPOS>MOLECULE
ASD02500097
  62   66    0    0    0
SMALL
NO_CHARGES


@<TRIPOS>ATOM
   1 N1            -3.7833     5.9403    -1.4189 N.ar    
   2 C2            -4.5861     6.5990    -2.2189 C.ar    
   3 C3            -5.9683     6.5859    -2.0442 C.ar    
   4 C4            -6.5189     5.8729    -1.0177 C.ar    
   5 C5            -5.6538     5.1663    -0.1608 C.ar    
   6 C6            -6.1465     4.4120     0.9158 C.ar    
   7 C7            -5.2770     3.7428     1.7223 C.ar    
   8 C8            -3.9038     3.7970     1.4937 C.ar    
   9 C9            -3.3919     4.5186     0.4594 C.ar    
  10 C10           -4.2574     5.2230    -0.3953 C.ar    
  11 S11           -1.6508     4.5704     0.1934 S.o2    
  12 O12           -1.3061     5.9424     0.0589 O.2     
  13 O13           -1.0703     3.7152     1.1685 O.2     
  14 N14           -1.3586     3.8684    -1.2777 N.am    
  15 C15           -1.5830     2.5063    -1.4558 C.ar    
  16 C16           -0.7724     1.7751    -2.3229 C.ar    
  17 C17           -0.9928     0.4270    -2.5006 C.ar    
  18 C18           -2.0304    -0.2068    -1.8096 C.ar    
  19 C19           -2.8401     0.5298    -0.9412 C.ar    
  20 C20           -2.6121     1.8761    -0.7638 C.ar    
  21 F21            0.2296     2.3891    -2.9895 F       
  22 C22           -2.2698    -1.6503    -1.9976 C.2     
  23 O23           -2.1806    -2.1421    -3.1061 O.2     
  24 N24           -2.5876    -2.4239    -0.9408 N.am    
  25 C25           -2.7410    -3.8791    -1.0894 C.3     
  26 C26           -1.8852    -4.5704    -0.0227 C.3     
  27 N27           -2.2370    -4.0408     1.3016 N.3     
  28 C28           -1.9323    -2.6071     1.4003 C.3     
  29 C29           -2.7841    -1.8362     0.3931 C.3     
  30 C30           -1.5959    -4.7608     2.3162 C.ar    
  31 C31           -1.9182    -6.0989     2.5341 C.ar    
  32 C32           -1.2805    -6.8065     3.5390 C.ar    
  33 C33           -0.3262    -6.1852     4.3243 C.ar    
  34 C34           -0.0062    -4.8579     4.1093 C.ar    
  35 C35           -0.6340    -4.1461     3.1038 C.ar    
  36 O36           -2.8574    -6.7084     1.7617 O.3     
  37 C37           -3.1365    -8.0815     2.0421 C.3     
  38 H38           -4.1648     7.1673    -3.0350 H       
  39 H39           -6.6038     7.1394    -2.7197 H       
  40 H40           -7.5882     5.8519    -0.8673 H       
  41 H41           -7.2089     4.3629     1.1035 H       
  42 H42           -5.6569     3.1627     2.5503 H       
  43 H43           -3.2346     3.2581     2.1480 H       
  44 H44           -1.0310     4.4065    -2.0153 H       
  45 H45           -0.3654    -0.1396    -3.1728 H       
  46 H46           -3.6423     0.0427    -0.4067 H       
  47 H47           -3.2355     2.4443    -0.0894 H       
  48 H48           -3.7873    -4.1528    -0.9533 H       
  49 H49           -2.4061    -4.1832    -2.0811 H       
  50 H50           -2.0716    -5.6440    -0.0463 H       
  51 H51           -0.8308    -4.3794    -0.2224 H       
  52 H52           -2.1529    -2.2569     2.4086 H       
  53 H53           -0.8772    -2.4435     1.1807 H       
  54 H54           -2.4777    -0.7902     0.3811 H       
  55 H55           -3.8346    -1.9097     0.6745 H       
  56 H56           -1.5284    -7.8436     3.7099 H       
  57 H57            0.1699    -6.7386     5.1079 H       
  58 H58            0.7390    -4.3768     4.7254 H       
  59 H59           -0.3789    -3.1103     2.9350 H       
  60 H60           -3.4932    -8.1777     3.0675 H       
  61 H61           -3.9015    -8.4443     1.3557 H       
  62 H62           -2.2275    -8.6699     1.9169 H       
@<TRIPOS>BOND
   1    1    2 ar
   2    1   10 ar
   3    2    3 ar
   4    2   38 1
   5    3    4 ar
   6    3   39 1
   7    4    5 ar
   8    4   40 1
   9    5    6 ar
  10    5   10 ar
  11    6    7 ar
  12    6   41 1
  13    7    8 ar
  14    7   42 1
  15    8    9 ar
  16    8   43 1
  17    9   10 ar
  18    9   11 1
  19   11   12 2
  20   11   13 2
  21   11   14 am
  22   14   15 1
  23   14   44 1
  24   15   16 ar
  25   15   20 ar
  26   16   17 ar
  27   16   21 1
  28   17   18 ar
  29   17   45 1
  30   18   19 ar
  31   18   22 1
  32   19   20 ar
  33   19   46 1
  34   20   47 1
  35   22   23 2
  36   22   24 am
  37   24   25 1
  38   24   29 1
  39   25   26 1
  40   25   48 1
  41   25   49 1
  42   26   27 1
  43   26   50 1
  44   26   51 1
  45   27   28 1
  46   27   30 1
  47   28   29 1
  48   28   52 1
  49   28   53 1
  50   29   54 1
  51   29   55 1
  52   30   31 ar
  53   30   35 ar
  54   31   32 ar
  55   31   36 1
  56   32   33 ar
  57   32   56 1
  58   33   34 ar
  59   33   57 1
  60   34   35 ar
  61   34   58 1
  62   35   59 1
  63   36   37 1
  64   37   60 1
  65   37   61 1
  66   37   62 1

#	End of record

