#	Name: ASD01914506
#	Creating user name:	WinNT
#	Creation time:	15. 06. 2019 20:03

#	Modifying user name:	WinNT
#	Modification time:	15. 06. 2019 20:03

#	Program:	/corina/corina34_cracker 3.40 0067  02.08.2006

@<TRIPOS>MOLECULE
ASD01914506
  54   58    0    0    0
SMALL
NO_CHARGES


@<TRIPOS>ATOM
   1 C1            -0.0168     1.3902     0.0097 C.ar    
   2 C2             0.0021    -0.0041     0.0020 C.ar    
   3 N3             1.1281     2.0669     0.0024 N.ar    
   4 N4             1.1562    -0.6463    -0.0125 N.ar    
   5 C5             2.2907     0.0310    -0.0196 C.ar    
   6 C6             2.2753     1.4182    -0.0120 C.ar    
   7 C7            -1.3085     2.1156     0.0197 C.2     
   8 O8            -2.3536     1.4956     0.0213 O.2     
   9 N9            -1.3245     3.4633     0.0271 N.am    
  10 C10           -2.6019     4.1806     0.0371 C.3     
  11 C11           -2.3402     5.6880     0.0440 C.3     
  12 C12           -3.6742     6.4372     0.0544 C.3     
  13 C13           -4.4661     6.0513     1.3053 C.3     
  14 C14           -4.7278     4.5439     1.2984 C.3     
  15 C15           -5.5315     4.1715     0.0509 C.3     
  16 C16           -4.7396     4.5574    -1.2000 C.3     
  17 C17           -3.4056     3.8083    -1.2104 C.3     
  18 C18           -4.4779     6.0649    -1.1931 C.3     
  19 C19           -3.3938     3.7947     1.2880 C.3     
  20 N20           -3.4236     7.8806     0.0611 N.am    
  21 C21           -4.4583     8.7442     0.0707 C.2     
  22 O22           -5.5991     8.3255     0.0738 O.2     
  23 C23           -4.2049    10.2040     0.0774 C.ar    
  24 C24           -5.2787    11.0914     0.0873 C.ar    
  25 C25           -5.0258    12.4540     0.0940 C.ar    
  26 C26           -3.7073    12.8819     0.0905 C.ar    
  27 C27           -2.6885    11.9428     0.0806 C.ar    
  28 N28           -2.9568    10.6552     0.0795 N.ar    
  29 C29            3.5727     2.1848    -0.0208 C.3     
  30 F30            3.9871     2.4153     1.2954 F       
  31 F31            4.5488     1.4419    -0.6936 F       
  32 F32            3.3868     3.4087    -0.6724 F       
  33 H33           -0.9252    -0.5578     0.0083 H       
  34 H34            3.2328    -0.4969    -0.0315 H       
  35 H35           -0.4903     3.9582     0.0259 H       
  36 H36           -1.7676     5.9533     0.9328 H       
  37 H37           -1.7760     5.9630    -0.8471 H       
  38 H38           -3.8935     6.3166     2.1941 H       
  39 H39           -5.4165     6.5850     1.3127 H       
  40 H40           -5.2920     4.2689     2.1896 H       
  41 H41           -5.7180     3.0976     0.0459 H       
  42 H42           -6.4819     4.7052     0.0583 H       
  43 H43           -5.3122     4.2922    -2.0888 H       
  44 H44           -2.8414     4.0832    -2.1016 H       
  45 H45           -3.5921     2.7343    -1.2154 H       
  46 H46           -5.4283     6.5986    -1.1857 H       
  47 H47           -3.9137     6.3398    -2.0843 H       
  48 H48           -3.5802     2.7208     1.2830 H       
  49 H49           -2.8212     4.0600     2.1767 H       
  50 H50           -2.5130     8.2148     0.0586 H       
  51 H51           -6.2938    10.7228     0.0894 H       
  52 H52           -5.8376    13.1664     0.1014 H       
  53 H53           -3.4763    13.9369     0.0952 H       
  54 H54           -1.6601    12.2726     0.0778 H       
@<TRIPOS>BOND
   1    1    2 ar
   2    1    3 ar
   3    1    7 1
   4    2    4 ar
   5    2   33 1
   6    3    6 ar
   7    4    5 ar
   8    5    6 ar
   9    5   34 1
  10    6   29 1
  11    7    8 2
  12    7    9 am
  13    9   10 1
  14    9   35 1
  15   10   11 1
  16   10   17 1
  17   10   19 1
  18   11   12 1
  19   11   36 1
  20   11   37 1
  21   12   13 1
  22   12   18 1
  23   12   20 1
  24   13   14 1
  25   13   38 1
  26   13   39 1
  27   14   15 1
  28   14   19 1
  29   14   40 1
  30   15   16 1
  31   15   41 1
  32   15   42 1
  33   16   17 1
  34   16   18 1
  35   16   43 1
  36   17   44 1
  37   17   45 1
  38   18   46 1
  39   18   47 1
  40   19   48 1
  41   19   49 1
  42   20   21 am
  43   20   50 1
  44   21   22 2
  45   21   23 1
  46   23   24 ar
  47   23   28 ar
  48   24   25 ar
  49   24   51 1
  50   25   26 ar
  51   25   52 1
  52   26   27 ar
  53   26   53 1
  54   27   28 ar
  55   27   54 1
  56   29   30 1
  57   29   31 1
  58   29   32 1

#	End of record

