#	Name: ASD01040046
#	Creating user name:	WinNT
#	Creation time:	15. 06. 2019 18:58

#	Modifying user name:	WinNT
#	Modification time:	15. 06. 2019 18:58

#	Program:	/corina/corina34_cracker 3.40 0067  02.08.2006

@<TRIPOS>MOLECULE
ASD01040046
  56   58    0    0    0
SMALL
NO_CHARGES


@<TRIPOS>ATOM
   1 O1            -0.0110     0.9628     0.0073 O.3     
   2 C2             1.2225     1.5323    -0.0014 C.ar    
   3 C3             1.8400     1.8291    -1.2090 C.ar    
   4 C4             3.0918     2.4070    -1.2213 C.ar    
   5 C5             3.7374     2.6938    -0.0192 C.ar    
   6 C6             5.0833     3.3157    -0.0287 C.2     
   7 C7             6.2392     2.5730    -0.5861 C.ar    
   8 C8             6.6820     1.4040     0.0313 C.ar    
   9 C9             7.7572     0.7156    -0.4896 C.ar    
  10 C10            8.3991     1.1858    -1.6275 C.ar    
  11 O11            9.4584     0.5053    -2.1383 O.3     
  12 C12            7.9606     2.3496    -2.2447 C.ar    
  13 C13            6.8820     3.0392    -1.7323 C.ar    
  14 C14            5.2549     4.5477     0.4661 C.2     
  15 C15            4.0904     5.3202     1.0453 C.3     
  16 C16            4.4842     5.8236     2.4379 C.3     
  17 C17            5.7847     6.6229     2.3405 C.3     
  18 C18            6.9205     5.7104     1.8747 C.3     
  19 C19            8.2340     6.4949     1.8654 C.3     
  20 C20            8.5300     6.9954     3.2557 C.2     
  21 O21            9.6397     7.7140     3.4882 O.3     
  22 C22            9.8605     8.1632     4.8512 C.3     
  23 O23            7.7685     6.7499     4.1611 O.2     
  24 C24            9.3529     5.5957     1.4064 C.2     
  25 O25           10.6046     6.0726     1.3197 O.3     
  26 C26           11.6319     5.1501     0.8704 C.3     
  27 O27            9.1233     4.4454     1.1165 O.2     
  28 C28            6.6195     5.2005     0.4661 C.3     
  29 C29            3.1145     2.3949     1.1919 C.ar    
  30 C30            1.8605     1.8214     1.1974 C.ar    
  31 H31            0.0021    -0.0041     0.0020 H       
  32 H32            1.3394     1.6067    -2.1398 H       
  33 H33            3.5719     2.6370    -2.1610 H       
  34 H34            6.1836     1.0381     0.9168 H       
  35 H35            8.1007    -0.1900    -0.0118 H       
  36 H36            9.2168    -0.1658    -2.7913 H       
  37 H37            8.4620     2.7128    -3.1296 H       
  38 H38            6.5414     3.9444    -2.2128 H       
  39 H39            3.8575     6.1685     0.4017 H       
  40 H40            3.2211     4.6674     1.1242 H       
  41 H41            3.6932     6.4626     2.8306 H       
  42 H42            4.6292     4.9732     3.1043 H       
  43 H43            5.6573     7.4363     1.6262 H       
  44 H44            6.0300     7.0362     3.3188 H       
  45 H45            7.0080     4.8629     2.5545 H       
  46 H46            8.1465     7.3421     1.1852 H       
  47 H47            9.9273     7.2991     5.5123 H       
  48 H48           10.7896     8.7311     4.9006 H       
  49 H49            9.0305     8.7967     5.1640 H       
  50 H50           11.6872     4.3054     1.5571 H       
  51 H51           11.3856     4.7906    -0.1287 H       
  52 H52           12.5940     5.6617     0.8455 H       
  53 H53            7.3744     4.4709     0.1730 H       
  54 H54            6.6249     6.0376    -0.2321 H       
  55 H55            3.6121     2.6155     2.1247 H       
  56 H56            1.3773     1.5900     2.1352 H       
@<TRIPOS>BOND
   1    1   31 1
   2    1    2 1
   3    2    3 ar
   4    2   30 ar
   5    3   32 1
   6    3    4 ar
   7    4   33 1
   8    4    5 ar
   9    5   29 ar
  10    5    6 1
  11    6   14 2
  12    6    7 1
  13    7    8 ar
  14    7   13 ar
  15    8   34 1
  16    8    9 ar
  17    9   35 1
  18    9   10 ar
  19   10   12 ar
  20   10   11 1
  21   11   36 1
  22   12   13 ar
  23   12   37 1
  24   13   38 1
  25   14   28 1
  26   14   15 1
  27   15   16 1
  28   15   39 1
  29   15   40 1
  30   16   17 1
  31   16   41 1
  32   16   42 1
  33   17   18 1
  34   17   43 1
  35   17   44 1
  36   18   19 1
  37   18   45 1
  38   18   28 1
  39   19   20 1
  40   19   24 1
  41   19   46 1
  42   20   23 2
  43   20   21 1
  44   21   22 1
  45   22   47 1
  46   22   48 1
  47   22   49 1
  48   24   25 1
  49   24   27 2
  50   25   26 1
  51   26   50 1
  52   26   51 1
  53   26   52 1
  54   28   53 1
  55   28   54 1
  56   29   30 ar
  57   29   55 1
  58   30   56 1

#	End of record

