#	Name: ASD01881558
#	Creating user name:	WinNT
#	Creation time:	15. 06. 2019 19:42

#	Modifying user name:	WinNT
#	Modification time:	15. 06. 2019 19:42

#	Program:	/corina/corina34_cracker 3.40 0067  02.08.2006

@<TRIPOS>MOLECULE
ASD01881558
  50   53    0    0    0
SMALL
NO_CHARGES


@<TRIPOS>ATOM
   1 C1            -0.0171     1.4114     0.0098 C.2     
   2 C2             0.0021    -0.0041     0.0020 C.2     
   3 C3            -1.1521    -0.6963     0.0093 C.2     
   4 N4            -2.3576    -0.0526     0.0237 N.pl3   
   5 C5            -2.4208     1.3172     0.0317 C.2     
   6 C6            -1.2327     2.0715     0.0307 C.2     
   7 C7            -3.6478    -0.5117     0.0335 C.2     
   8 C8            -4.4570     0.5703     0.0470 C.2     
   9 N9            -3.6999     1.6696     0.0457 N.2     
  10 C10           -4.0836    -1.9543     0.0294 C.3     
  11 C11            1.2506     2.1774     0.0018 C.ar    
  12 C12            2.1228     2.0960     1.0874 C.ar    
  13 C13            3.3023     2.8098     1.0780 C.ar    
  14 C14            3.6230     3.6106    -0.0117 C.ar    
  15 C15            2.7549     3.6939    -1.0963 C.ar    
  16 C16            1.5771     2.9772    -1.0943 C.ar    
  17 Cl17          -1.2919     3.8065     0.0413 Cl      
  18 N18            4.8175     4.3330    -0.0181 N.pl3   
  19 C19            5.7319     4.2465     1.1232 C.3     
  20 Cl20           3.1587     4.6953    -2.4557 Cl      
  21 C21            7.1545     4.5708     0.6627 C.3     
  22 C22            8.1095     4.4805     1.8547 C.3     
  23 C23            7.6804     5.4819     2.9289 C.3     
  24 C24            6.2579     5.1576     3.3894 C.3     
  25 C25            5.3029     5.2479     2.1975 C.3     
  26 O26            8.5724     5.3976     4.0422 O.3     
  27 C27           -4.3653    -2.3979    -1.4075 C.3     
  28 F28           -3.2034    -2.2596    -2.1745 F       
  29 F29           -4.7699    -3.7371    -1.4113 F       
  30 F30           -5.3800    -1.6027    -1.9507 F       
  31 H31            0.9454    -0.5299    -0.0101 H       
  32 H32           -1.1253    -1.7759     0.0032 H       
  33 H33           -5.5367     0.5492     0.0568 H       
  34 H34           -3.2930    -2.5739     0.4526 H       
  35 H35           -4.9889    -2.0621     0.6270 H       
  36 H36            1.8741     1.4745     1.9349 H       
  37 H37            3.9776     2.7468     1.9184 H       
  38 H38            0.9035     3.0418    -1.9360 H       
  39 H39            5.0421     4.8922    -0.7782 H       
  40 H40            5.7045     3.2377     1.5352 H       
  41 H41            7.4601     3.8574    -0.1026 H       
  42 H42            7.1819     5.5796     0.2508 H       
  43 H43            8.0820     3.4717     2.2666 H       
  44 H44            9.1229     4.7116     1.5266 H       
  45 H45            7.7079     6.4907     2.5170 H       
  46 H46            6.2304     4.1488     3.8014 H       
  47 H47            5.9522     5.8711     4.1547 H       
  48 H48            5.3303     6.2567     1.7855 H       
  49 H49            4.2894     5.0169     2.5256 H       
  50 H50            8.3602     6.0061     4.7631 H       
@<TRIPOS>BOND
   1    1    2 1
   2    1   11 1
   3    1    6 2
   4    2    3 2
   5    2   31 1
   6    3    4 1
   7    3   32 1
   8    4    5 1
   9    4    7 1
  10    5    6 1
  11    5    9 2
  12    6   17 1
  13    7    8 2
  14    7   10 1
  15    8    9 1
  16    8   33 1
  17   10   27 1
  18   10   34 1
  19   10   35 1
  20   11   12 ar
  21   11   16 ar
  22   12   13 ar
  23   12   36 1
  24   13   14 ar
  25   13   37 1
  26   14   15 ar
  27   14   18 1
  28   15   16 ar
  29   15   20 1
  30   16   38 1
  31   18   19 1
  32   18   39 1
  33   19   21 1
  34   19   25 1
  35   19   40 1
  36   21   22 1
  37   21   41 1
  38   21   42 1
  39   22   23 1
  40   22   43 1
  41   22   44 1
  42   23   24 1
  43   23   26 1
  44   23   45 1
  45   24   25 1
  46   24   46 1
  47   24   47 1
  48   25   48 1
  49   25   49 1
  50   26   50 1
  51   27   28 1
  52   27   29 1
  53   27   30 1

#	End of record

