#	Name: ASD04882391
#	Creating user name:	WinNT
#	Creation time:	15. 06. 2019 20:54

#	Modifying user name:	WinNT
#	Modification time:	15. 06. 2019 20:54

#	Program:	/corina/corina34_cracker 3.40 0067  02.08.2006

@<TRIPOS>MOLECULE
ASD04882391
  80   85    0    0    0
SMALL
NO_CHARGES


@<TRIPOS>ATOM
   1 N1            -0.0169     1.3967     0.0097 N.am    
   2 C2             0.1110     0.0023    -0.0345 C.ar    
   3 C3            -1.0256    -0.8072     0.0449 C.ar    
   4 C4            -0.9001    -2.1910     0.0011 C.ar    
   5 C5             0.3440    -2.7692    -0.1206 C.ar    
   6 C6             1.4847    -1.9656    -0.2001 C.ar    
   7 C7             1.3608    -0.5738    -0.1625 C.ar    
   8 N8            -2.2853    -0.2268     0.1685 N.3     
   9 C9            -3.1509    -0.6022    -0.9582 C.3     
  10 C10           -2.9078    -0.5873     1.4500 C.3     
  11 C11           -4.2522     0.1322     1.5813 C.3     
  12 N12           -5.1178    -0.2431     0.4546 N.3     
  13 C13           -4.4954     0.1173    -0.8269 C.3     
  14 C14            2.8172    -2.5852    -0.3299 C.2     
  15 O15            3.8091    -1.8853    -0.3990 O.2     
  16 C16            0.9202     2.1780    -0.5629 C.2     
  17 C17            0.7426     3.6338    -0.5938 C.2     
  18 O18            1.9139     1.6756    -1.0544 O.2     
  19 C19           -6.3814     0.3390     0.5786 C.ar    
  20 C20           -6.5096     1.7213     0.6231 C.ar    
  21 C21           -7.5134    -0.4632     0.6521 C.ar    
  22 C22           -8.7610     0.1156     0.7747 C.ar    
  23 C23           -8.8847     1.4922     0.8239 C.ar    
  24 C24           -7.7607     2.2936     0.7458 C.ar    
  25 C25           -0.3106     4.3361    -0.0870 C.2     
  26 O26            1.5952     4.5405    -1.1255 O.3     
  27 C27            1.0623     5.7531    -0.9458 C.2     
  28 N28           -0.0797     5.6315    -0.3236 N.2     
  29 N29            2.9352    -3.9272    -0.3720 N.am    
  30 C30            4.1126    -6.0654    -0.5245 C.3     
  31 C31            4.2584    -4.5425    -0.5009 C.3     
  32 C32           -7.3797    -1.9633     0.5976 C.3     
  33 C33            1.6826     7.0539    -1.3867 C.3     
  34 C34            5.4945    -6.7080    -0.6591 C.3     
  35 N35            5.3548    -8.1662    -0.6817 N.am    
  36 C36            5.1716    -8.9618    -1.9013 C.3     
  37 C37            4.6452   -10.3333    -1.4235 C.3     
  38 C38            5.1962   -10.3971     0.0198 C.3     
  39 C39            5.3838    -8.9479     0.4114 C.2     
  40 O40            5.5314    -8.5487     1.5472 O.2     
  41 C41            0.8925     7.9140    -2.3751 C.3     
  42 C42            1.0193     8.3490    -0.9137 C.3     
  43 H43           -0.7820     1.7999     0.4490 H       
  44 H44           -1.7801    -2.8140     0.0631 H       
  45 H45            0.4381    -3.8446    -0.1543 H       
  46 H46            2.2405     0.0497    -0.2241 H       
  47 H47           -2.6741    -0.3138    -1.8949 H       
  48 H48           -3.3129    -1.6801    -0.9489 H       
  49 H49           -3.0669    -1.6649     1.4866 H       
  50 H50           -2.2536    -0.2880     2.2689 H       
  51 H51           -4.7290    -0.1562     2.5181 H       
  52 H52           -4.0902     1.2101     1.5721 H       
  53 H53           -4.3362     1.1950    -0.8634 H       
  54 H54           -5.1495    -0.1820    -1.6458 H       
  55 H55           -5.6321     2.3478     0.5621 H       
  56 H56           -9.6414    -0.5075     0.8318 H       
  57 H57           -9.8618     1.9423     0.9191 H       
  58 H58           -7.8607     3.3683     0.7845 H       
  59 H59           -1.1732     3.9219     0.4137 H       
  60 H60            2.1439    -4.4855    -0.3169 H       
  61 H61            3.6449    -6.4000     0.4015 H       
  62 H62            3.4917    -6.3579    -1.3713 H       
  63 H63            4.7260    -4.2079    -1.4269 H       
  64 H64            4.8792    -4.2500     0.3459 H       
  65 H65           -7.2602    -2.3544     1.6079 H       
  66 H66           -8.2744    -2.3916     0.1456 H       
  67 H67           -6.5079    -2.2289    -0.0003 H       
  68 H68            2.7686     7.0491    -1.4798 H       
  69 H69            5.9621    -6.3735    -1.5852 H       
  70 H70            6.1153    -6.4156     0.1877 H       
  71 H71            4.4424    -8.4852    -2.5565 H       
  72 H72            6.1230    -9.0826    -2.4193 H       
  73 H73            3.5554   -10.3553    -1.4263 H       
  74 H74            5.0517   -11.1408    -2.0324 H       
  75 H75            4.4791   -10.8840     0.6807 H       
  76 H76            6.1520   -10.9206     0.0404 H       
  77 H77            1.4588     8.4755    -3.1182 H       
  78 H78           -0.0758     7.5391    -2.7064 H       
  79 H79            0.1343     8.2602    -0.2836 H       
  80 H80            1.6690     9.1965    -0.6954 H       
@<TRIPOS>BOND
   1    1    2 1
   2    1   16 am
   3    1   43 1
   4    2    3 ar
   5    2    7 ar
   6    3    4 ar
   7    3    8 1
   8    4    5 ar
   9    4   44 1
  10    5    6 ar
  11    5   45 1
  12    6    7 ar
  13    6   14 1
  14    7   46 1
  15    8    9 1
  16    8   10 1
  17    9   13 1
  18    9   47 1
  19    9   48 1
  20   10   11 1
  21   10   49 1
  22   10   50 1
  23   11   12 1
  24   11   51 1
  25   11   52 1
  26   12   13 1
  27   12   19 1
  28   13   53 1
  29   13   54 1
  30   14   15 2
  31   14   29 am
  32   16   18 2
  33   16   17 1
  34   17   25 2
  35   17   26 1
  36   19   20 ar
  37   19   21 ar
  38   20   24 ar
  39   20   55 1
  40   21   22 ar
  41   21   32 1
  42   22   23 ar
  43   22   56 1
  44   23   24 ar
  45   23   57 1
  46   24   58 1
  47   25   28 1
  48   25   59 1
  49   26   27 1
  50   27   28 2
  51   27   33 1
  52   29   31 1
  53   29   60 1
  54   30   31 1
  55   30   34 1
  56   30   61 1
  57   30   62 1
  58   31   63 1
  59   31   64 1
  60   32   65 1
  61   32   66 1
  62   32   67 1
  63   33   41 1
  64   33   42 1
  65   33   68 1
  66   34   35 1
  67   34   69 1
  68   34   70 1
  69   35   36 1
  70   35   39 am
  71   36   37 1
  72   36   71 1
  73   36   72 1
  74   37   38 1
  75   37   73 1
  76   37   74 1
  77   38   39 1
  78   38   75 1
  79   38   76 1
  80   39   40 2
  81   41   42 1
  82   41   77 1
  83   41   78 1
  84   42   79 1
  85   42   80 1

#	End of record

