#	Name: ASD03090215
#	Creating user name:	WinNT
#	Creation time:	15. 06. 2019 20:28

#	Modifying user name:	WinNT
#	Modification time:	15. 06. 2019 20:28

#	Program:	/corina/corina34_cracker 3.40 0067  02.08.2006

@<TRIPOS>MOLECULE
ASD03090215
  49   52    0    0    0
SMALL
NO_CHARGES


@<TRIPOS>ATOM
   1 N1             0.4414     1.5104     1.4657 N.ar    
   2 C2             0.4043     0.1921     1.4316 C.ar    
   3 C3             1.5317    -0.5405     1.1222 C.ar    
   4 C4             2.7244     0.1354     0.8423 C.ar    
   5 C5             2.7176     1.5334     0.8896 C.ar    
   6 C6             1.5444     2.1864     1.2085 C.ar    
   7 C7             3.9591    -0.6082     0.5058 C.2     
   8 N8             5.7409    -3.4563    -0.5269 N.pl3   
   9 C9             4.8145    -4.4472    -0.8724 C.ar    
  10 C10            3.5992    -4.0933    -1.4433 C.ar    
  11 C11            2.6859    -5.0718    -1.7844 C.ar    
  12 C12            2.9825    -6.4073    -1.5568 C.ar    
  13 C13            4.1964    -6.7618    -0.9865 C.ar    
  14 C14            5.1128    -5.7854    -0.6498 C.ar    
  15 N15            4.0246    -1.8643     0.1124 N.2     
  16 C16            5.2965    -2.2028    -0.1022 C.2     
  17 N17            6.0640    -1.1673     0.1510 N.2     
  18 N18            5.2178    -0.1171     0.5423 N.pl3   
  19 C19            5.6203     1.2389     0.9237 C.3     
  20 C20            5.7254     2.1111    -0.3289 C.3     
  21 C21           -0.8868    -0.5233     1.7352 C.3     
  22 F22            6.1098     3.4060     0.0353 F       
  23 O23            2.0825    -7.3700    -1.8926 O.3     
  24 C24            0.8528    -6.9336    -2.4752 C.3     
  25 C25           -1.7704    -0.9195     0.5507 C.3     
  26 C26           -0.9956    -1.9916     1.3194 C.3     
  27 C27            4.5172    -8.2134    -0.7393 C.3     
  28 F28            5.7871    -8.3185    -0.1616 F       
  29 F29            3.5643    -8.7607     0.1264 F       
  30 F30            4.4982    -8.9085    -1.9533 F       
  31 H31            1.4942    -1.6196     1.0969 H       
  32 H32            3.6171     2.0933     0.6804 H       
  33 H33            1.5290     3.2656     1.2472 H       
  34 H34            6.6916    -3.6406    -0.5825 H       
  35 H35            3.3680    -3.0533    -1.6202 H       
  36 H36            1.7405    -4.7967    -2.2281 H       
  37 H37            6.0579    -6.0616    -0.2061 H       
  38 H38            4.8771     1.6619     1.5996 H       
  39 H39            6.5880     1.2035     1.4241 H       
  40 H40            6.4686     1.6881    -1.0048 H       
  41 H41            4.7577     2.1466    -0.8293 H       
  42 H42           -1.3855    -0.2225     2.6567 H       
  43 H43            1.0600    -6.3919    -3.3980 H       
  44 H44            0.2274    -7.7990    -2.6946 H       
  45 H45            0.3329    -6.2772    -1.7774 H       
  46 H46           -2.8504    -0.8797     0.6929 H       
  47 H47           -1.4178    -0.6627    -0.4482 H       
  48 H48           -0.1332    -2.4403     0.8262 H       
  49 H49           -1.5658    -2.6573     1.9674 H       
@<TRIPOS>BOND
   1    1    2 ar
   2    1    6 ar
   3    2    3 ar
   4    2   21 1
   5    3    4 ar
   6    3   31 1
   7    4    5 ar
   8    4    7 1
   9    5    6 ar
  10    5   32 1
  11    6   33 1
  12    7   15 2
  13    7   18 1
  14    8    9 1
  15    8   16 1
  16    8   34 1
  17    9   10 ar
  18    9   14 ar
  19   10   11 ar
  20   10   35 1
  21   11   12 ar
  22   11   36 1
  23   12   13 ar
  24   12   23 1
  25   13   14 ar
  26   13   27 1
  27   14   37 1
  28   15   16 1
  29   16   17 2
  30   17   18 1
  31   18   19 1
  32   19   20 1
  33   19   38 1
  34   19   39 1
  35   20   22 1
  36   20   40 1
  37   20   41 1
  38   21   25 1
  39   21   26 1
  40   21   42 1
  41   23   24 1
  42   24   43 1
  43   24   44 1
  44   24   45 1
  45   25   26 1
  46   25   46 1
  47   25   47 1
  48   26   48 1
  49   26   49 1
  50   27   28 1
  51   27   29 1
  52   27   30 1

#	End of record

