#	Name: ASD01811397
#	Creating user name:	WinNT
#	Creation time:	15. 06. 2019 19:26

#	Modifying user name:	WinNT
#	Modification time:	15. 06. 2019 19:26

#	Program:	/corina/corina34_cracker 3.40 0067  02.08.2006

@<TRIPOS>MOLECULE
ASD01811397
  20   20    0    0    0
SMALL
NO_CHARGES


@<TRIPOS>ATOM
   1 N1            -0.0153     1.2802     0.0091 N.pl3   
   2 N2             0.0021    -0.0041     0.0020 N.2     
   3 C3             1.2305    -0.4552    -0.0121 C.2     
   4 C4             2.0911     0.6445    -0.0144 C.2     
   5 C5             1.2655     1.7563    -0.0006 C.2     
   6 C6             1.6832     3.1657     0.0026 C.2     
   7 O7             2.8651     3.4494    -0.0071 O.2     
   8 O8             0.7554     4.1437     0.0162 O.3     
   9 N9             1.6358    -1.8787    -0.0232 N.pl3   
  10 O10            0.7881    -2.7533    -0.0199 O.2     
  11 O11            2.8171    -2.1755    -0.0357 O.2     
  12 C12           -1.2238     2.1082     0.0195 C.3     
  13 C13            1.2403     5.5124     0.0185 C.3     
  14 H14            3.1710     0.6309    -0.0243 H       
  15 H15           -1.5182     2.3084     1.0498 H       
  16 H16           -1.0232     3.0504    -0.4905 H       
  17 H17           -2.0293     1.5820    -0.4928 H       
  18 H18            1.8375     5.6878    -0.8762 H       
  19 H19            0.3930     6.1980     0.0300 H       
  20 H20            1.8543     5.6788     0.9036 H       
@<TRIPOS>BOND
   1    1    2 1
   2    1    5 1
   3    1   12 1
   4    2    3 2
   5    3    4 1
   6    3    9 1
   7    4    5 2
   8    4   14 1
   9    5    6 1
  10    6    7 2
  11    6    8 1
  12    8   13 1
  13    9   10 2
  14    9   11 2
  15   12   15 1
  16   12   16 1
  17   12   17 1
  18   13   18 1
  19   13   19 1
  20   13   20 1

#	End of record

