#	Name: ASD01883007
#	Creating user name:	WinNT
#	Creation time:	15. 06. 2019 19:45

#	Modifying user name:	WinNT
#	Modification time:	15. 06. 2019 19:45

#	Program:	/corina/corina34_cracker 3.40 0067  02.08.2006

@<TRIPOS>MOLECULE
ASD01883007
  57   59    0    0    0
SMALL
NO_CHARGES


@<TRIPOS>ATOM
   1 C1             2.0753     1.6166    -0.3560 C.ar    
   2 C2             2.1169     0.2734    -0.0321 C.ar    
   3 C3             1.2154    -0.6041    -0.6051 C.ar    
   4 C4             0.2720    -0.1382    -1.5017 C.ar    
   5 C5             0.2298     1.2052    -1.8249 C.ar    
   6 C6             1.1322     2.0824    -1.2530 C.ar    
   7 C7             2.3618    -2.7543    -1.0658 C.3     
   8 C8             1.2614    -2.0686    -0.2528 C.3     
   9 C9             1.5559    -2.2246     1.2409 C.3     
  10 C10            1.5677    -3.7132     1.6022 C.3     
  11 N11            2.5204    -4.4056     0.7237 N.pl3   
  12 C12            2.3826    -4.2489    -0.7307 C.3     
  13 N13            5.5541    -6.7346     2.3043 N.am    
  14 C14            4.2802    -7.1140     2.5164 C.2     
  15 C15            3.2173    -6.3419     1.9911 C.2     
  16 C16            3.5234    -5.1859     1.2533 C.2     
  17 C17            4.8748    -4.8414     1.0656 C.2     
  18 C18            5.8483    -5.6140     1.5951 C.2     
  19 O19            4.0426    -8.1221     3.1601 O.2     
  20 C20            1.8562    -6.7311     2.2068 C.1     
  21 N21            0.7764    -7.0399     2.3779 N.1     
  22 C22            6.6450    -7.5431     2.8543 C.3     
  23 C23            7.0559    -8.6068     1.8342 C.3     
  24 O24            0.0010    -2.6707    -0.5546 O.3     
  25 C25           -1.0786    -2.1941     0.2511 C.3     
  26 C26            8.1952    -9.4511     2.4086 C.3     
  27 C27            8.6062   -10.5148     1.3885 C.3     
  28 C28           -2.3801    -2.8662    -0.1908 C.3     
  29 F29           -2.3058    -4.2397     0.0647 F       
  30 H30            2.7767     2.3028     0.0951 H       
  31 H31            2.8539    -0.0906     0.6684 H       
  32 H32           -0.4319    -0.8238    -1.9499 H       
  33 H33           -0.5071     1.5691    -2.5256 H       
  34 H34            1.0990     3.1320    -1.5052 H       
  35 H35            2.1638    -2.6227    -2.1296 H       
  36 H36            3.3267    -2.3122    -0.8175 H       
  37 H37            2.5284    -1.7875     1.4675 H       
  38 H38            0.7844    -1.7160     1.8189 H       
  39 H39            1.8739    -3.8347     2.6412 H       
  40 H40            0.5708    -4.1312     1.4617 H       
  41 H41            1.4523    -4.7106    -1.0614 H       
  42 H42            3.2266    -4.7238    -1.2309 H       
  43 H43            5.1335    -3.9572     0.5019 H       
  44 H44            6.8819    -5.3393     1.4447 H       
  45 H45            7.4981    -6.9012     3.0736 H       
  46 H46            6.3107    -8.0289     3.7710 H       
  47 H47            6.2028    -9.2488     1.6149 H       
  48 H48            7.3902    -8.1210     0.9174 H       
  49 H49           -0.8839    -2.4317     1.2970 H       
  50 H50           -1.1697    -1.1142     0.1348 H       
  51 H51            9.0484    -8.8092     2.6279 H       
  52 H52            7.8609    -9.9369     3.3254 H       
  53 H53            9.4178   -11.1163     1.7977 H       
  54 H54            7.7530   -11.1568     1.1692 H       
  55 H55            8.9404   -10.0291     0.4718 H       
  56 H56           -3.2161    -2.4384     0.3626 H       
  57 H57           -2.5293    -2.7028    -1.2581 H       
@<TRIPOS>BOND
   1    1    2 ar
   2    1    6 ar
   3    1   30 1
   4    2    3 ar
   5    2   31 1
   6    3    4 ar
   7    3    8 1
   8    4    5 ar
   9    4   32 1
  10    5    6 ar
  11    5   33 1
  12    6   34 1
  13    7    8 1
  14    7   12 1
  15    7   35 1
  16    7   36 1
  17    8    9 1
  18    8   24 1
  19    9   10 1
  20    9   37 1
  21    9   38 1
  22   10   11 1
  23   10   39 1
  24   10   40 1
  25   11   12 1
  26   11   16 1
  27   12   41 1
  28   12   42 1
  29   13   14 am
  30   13   22 1
  31   13   18 1
  32   14   15 1
  33   14   19 2
  34   15   16 2
  35   15   20 1
  36   16   17 1
  37   17   18 2
  38   17   43 1
  39   18   44 1
  40   20   21 3
  41   22   23 1
  42   22   45 1
  43   22   46 1
  44   23   26 1
  45   23   47 1
  46   23   48 1
  47   24   25 1
  48   25   28 1
  49   25   49 1
  50   25   50 1
  51   26   27 1
  52   26   51 1
  53   26   52 1
  54   27   53 1
  55   27   54 1
  56   27   55 1
  57   28   29 1
  58   28   56 1
  59   28   57 1

#	End of record

