#	Name: ASD01200097
#	Creating user name:	WinNT
#	Creation time:	15. 06. 2019 19:08

#	Modifying user name:	WinNT
#	Modification time:	15. 06. 2019 19:08

#	Program:	/corina/corina34_cracker 3.40 0067  02.08.2006

@<TRIPOS>MOLECULE
ASD01200097
  57   60    0    0    0
SMALL
NO_CHARGES


@<TRIPOS>ATOM
   1 C1             0.3398     1.5945    -1.2473 C.2     
   2 C2             0.5479     0.2847    -1.9631 C.3     
   3 O3             1.2922     2.2933    -0.9724 O.2     
   4 N4            -0.9051     1.9919    -0.9176 N.am    
   5 C5            -2.0560     1.1507    -1.2550 C.3     
   6 C6            -1.1074     3.2652    -0.2218 C.3     
   7 C7            -0.3117     7.9066    -3.8974 C.2     
   8 N8            -1.5341     7.4387    -3.9514 N.2     
   9 C9            -1.6594     6.3917    -3.1013 C.ar    
  10 C10           -0.4104     6.2089    -2.4803 C.ar    
  11 N11            0.4238     7.1796    -3.0012 N.pl3   
  12 C12           -2.7226     5.5444    -2.7721 C.ar    
  13 C13           -2.5354     4.5402    -1.8436 C.ar    
  14 C14           -1.2958     4.3661    -1.2335 C.ar    
  15 C15           -0.2403     5.1943    -1.5486 C.ar    
  16 C16            0.1990     9.0464    -4.6912 C.ar    
  17 C17           -0.6498     9.7063    -5.5792 C.ar    
  18 C18           -0.1575    10.7710    -6.3143 C.ar    
  19 C19            1.1679    11.1414    -6.1375 C.ar    
  20 C20            1.9541    10.4421    -5.2389 C.ar    
  21 N21            1.4601     9.4360    -4.5481 N.ar    
  22 O22           -3.5679     3.7162    -1.5224 O.3     
  23 C23           -4.7291     3.8485    -2.2157 C.ar    
  24 C24           -4.9172     3.1453    -3.3970 C.ar    
  25 C25           -6.0987     3.2812    -4.0996 C.ar    
  26 C26           -7.0934     4.1174    -3.6269 C.ar    
  27 C27           -6.9085     4.8192    -2.4500 C.ar    
  28 C28           -5.7311     4.6825    -1.7405 C.ar    
  29 S29           -8.5988     4.2894    -4.5261 S.o2    
  30 O30           -9.0774     5.5777    -4.1652 O.2     
  31 O31           -8.2413     3.9903    -5.8685 O.2     
  32 C32           -9.6788     2.9972    -3.8521 C.3     
  33 C33          -11.0339     3.0440    -4.5609 C.3     
  34 H34            1.6118     0.1370    -2.1485 H       
  35 H35            0.1700    -0.5305    -1.3461 H       
  36 H36            0.0124     0.3004    -2.9123 H       
  37 H37           -2.2553     0.4615    -0.4344 H       
  38 H38           -2.9301     1.7804    -1.4211 H       
  39 H39           -1.8389     0.5842    -2.1606 H       
  40 H40           -1.9928     3.1971     0.4102 H       
  41 H41           -0.2362     3.4843     0.3955 H       
  42 H42            1.3566     7.3192    -2.7745 H       
  43 H43           -3.6859     5.6752    -3.2425 H       
  44 H44            0.7184     5.0535    -1.0716 H       
  45 H45           -1.6766     9.3910    -5.6921 H       
  46 H46           -0.7909    11.3013    -7.0101 H       
  47 H47            1.5821    11.9675    -6.6963 H       
  48 H48            2.9862    10.7282    -5.0993 H       
  49 H49           -4.1404     2.4926    -3.7671 H       
  50 H50           -6.2456     2.7342    -5.0192 H       
  51 H51           -7.6868     5.4720    -2.0831 H       
  52 H52           -5.5888     5.2277    -0.8192 H       
  53 H53           -9.2198     2.0212    -4.0098 H       
  54 H54           -9.8214     3.1633    -2.7843 H       
  55 H55          -11.4929     4.0200    -4.4032 H       
  56 H56          -10.8913     2.8779    -5.6287 H       
  57 H57          -11.6829     2.2676    -4.1558 H       
@<TRIPOS>BOND
   1    1    2 1
   2    1    3 2
   3    1    4 am
   4    2   34 1
   5    2   35 1
   6    2   36 1
   7    4    5 1
   8    4    6 1
   9    5   37 1
  10    5   38 1
  11    5   39 1
  12    6   14 1
  13    6   40 1
  14    6   41 1
  15    7    8 2
  16    7   11 1
  17    7   16 1
  18    8    9 1
  19    9   10 ar
  20    9   12 ar
  21   10   11 1
  22   10   15 ar
  23   11   42 1
  24   12   13 ar
  25   12   43 1
  26   13   14 ar
  27   13   22 1
  28   14   15 ar
  29   15   44 1
  30   16   17 ar
  31   16   21 ar
  32   17   18 ar
  33   17   45 1
  34   18   19 ar
  35   18   46 1
  36   19   20 ar
  37   19   47 1
  38   20   21 ar
  39   20   48 1
  40   22   23 1
  41   23   24 ar
  42   23   28 ar
  43   24   25 ar
  44   24   49 1
  45   25   26 ar
  46   25   50 1
  47   26   27 ar
  48   26   29 1
  49   27   28 ar
  50   27   51 1
  51   28   52 1
  52   29   30 2
  53   29   31 2
  54   29   32 1
  55   32   33 1
  56   32   53 1
  57   32   54 1
  58   33   55 1
  59   33   56 1
  60   33   57 1

#	End of record

