#	Name: ASD01140060
#	Creating user name:	WinNT
#	Creation time:	15. 06. 2019 18:59

#	Modifying user name:	WinNT
#	Modification time:	15. 06. 2019 18:59

#	Program:	/corina/corina34_cracker 3.40 0067  02.08.2006

@<TRIPOS>MOLECULE
ASD01140060
  59   62    0    0    0
SMALL
NO_CHARGES


@<TRIPOS>ATOM
   1 C1             0.0461     3.2863    -1.1434 C.3     
   2 C2            -0.3437     1.8087    -1.1578 C.3     
   3 C3             0.0732     1.1379     0.1527 C.3     
   4 C4             1.5816     1.2944     0.3485 C.3     
   5 C5             1.9560     2.7732     0.3991 C.3     
   6 C6             1.5500     3.4397    -0.9146 C.3     
   7 C7             2.0320     0.5675     1.6131 C.3     
   8 C8             3.5494     0.7142     1.7875 C.3     
   9 C9             4.0996     1.5194     0.6105 C.3     
  10 C10            3.4699     2.9113     0.6183 C.3     
  11 C11            5.5901     1.5800     0.5727 C.3     
  12 C12            6.1556     3.0021     0.7762 C.3     
  13 C13            5.6280     3.9219    -0.2941 C.3     
  14 C14            4.1015     3.8251    -0.4156 C.3     
  15 C15            6.3984     0.7893     1.6119 C.3     
  16 C16            7.8395     1.2975     1.2994 C.3     
  17 C17            7.6716     2.7133     0.6918 C.3     
  18 C18           -1.8056     1.6958    -1.3135 C.1     
  19 C19            1.2499     3.4700     1.5656 C.3     
  20 C20            5.9040     3.5632     2.1738 C.3     
  21 C21            8.4276     3.7297     1.5023 C.2     
  22 C22            8.8615     5.0266     0.8694 C.3     
  23 O23            8.6871     3.5065     2.6604 O.2     
  24 H24            2.0756     0.8326    -0.5165 H       
  25 O25            0.2950     1.1548    -2.2554 O.3     
  26 C26           -2.9696     1.6059    -1.4375 C.1     
  27 H27           -0.2065     3.7252    -2.1163 H       
  28 H28           -0.5161     3.8129    -0.3774 H       
  29 H29           -0.4743     1.5673     0.9849 H       
  30 H30           -0.1650     0.0698     0.0920 H       
  31 H31            2.0870     2.9712    -1.7410 H       
  32 H32            1.8006     4.5008    -0.8778 H       
  33 H33            1.5201     0.9611     2.4870 H       
  34 H34            1.7912    -0.4965     1.5173 H       
  35 H35            3.7588     1.2364     2.7202 H       
  36 H36            4.0107    -0.2725     1.8056 H       
  37 H37            3.7721     1.0069    -0.3157 H       
  38 H38            3.5645     3.3541     1.6138 H       
  39 H39            5.9214     1.2230    -0.4307 H       
  40 H40            5.9086     4.9578    -0.0590 H       
  41 H41            6.0872     3.6663    -1.2585 H       
  42 H42            3.8540     3.4623    -1.4218 H       
  43 H43            3.6743     4.8321    -0.3156 H       
  44 H44            6.1080     1.0137     2.6277 H       
  45 H45            6.3303    -0.2822     1.4139 H       
  46 H46            8.4213     1.3487     2.2174 H       
  47 H47            8.3163     0.6340     0.5799 H       
  48 H48            7.9867     2.7258    -0.3469 H       
  49 H49            1.5459     2.9992     2.5030 H       
  50 H50            1.5306     4.5231     1.5833 H       
  51 H51            0.1705     3.3838     1.4406 H       
  52 H52            6.4920     3.0035     2.9013 H       
  53 H53            6.1955     4.6132     2.2017 H       
  54 H54            4.8451     3.4735     2.4162 H       
  55 H55            8.5404     5.0480    -0.1720 H       
  56 H56            8.4106     5.8615     1.4059 H       
  57 H57            9.9474     5.1085     0.9165 H       
  58 H58            0.0610     1.5186    -3.1202 H       
  59 H59           -4.0106     1.5255    -1.5484 H       
@<TRIPOS>BOND
   1    1    2 1
   2    1    6 1
   3    1   27 1
   4    1   28 1
   5    2    3 1
   6    2   25 1
   7    2   18 1
   8    3    4 1
   9    3   29 1
  10    3   30 1
  11    4    5 1
  12    4    7 1
  13    4   24 1
  14    5    6 1
  15    5   19 1
  16    5   10 1
  17    6   31 1
  18    6   32 1
  19    7    8 1
  20    7   33 1
  21    7   34 1
  22    8    9 1
  23    8   35 1
  24    8   36 1
  25    9   10 1
  26    9   11 1
  27    9   37 1
  28   10   14 1
  29   10   38 1
  30   11   12 1
  31   11   15 1
  32   11   39 1
  33   12   13 1
  34   12   20 1
  35   12   17 1
  36   13   14 1
  37   13   40 1
  38   13   41 1
  39   14   42 1
  40   14   43 1
  41   15   16 1
  42   15   44 1
  43   15   45 1
  44   16   17 1
  45   16   46 1
  46   16   47 1
  47   17   21 1
  48   17   48 1
  49   18   26 3
  50   19   49 1
  51   19   50 1
  52   19   51 1
  53   20   52 1
  54   20   53 1
  55   20   54 1
  56   21   22 1
  57   21   23 2
  58   22   55 1
  59   22   56 1
  60   22   57 1
  61   25   58 1
  62   26   59 1

#	End of record

