#	Name: ASD01152485
#	Creating user name:	WinNT
#	Creation time:	15. 06. 2019 19:05

#	Modifying user name:	WinNT
#	Modification time:	15. 06. 2019 19:05

#	Program:	/corina/corina34_cracker 3.40 0067  02.08.2006

@<TRIPOS>MOLECULE
ASD01152485
  53   56    0    0    0
SMALL
NO_CHARGES


@<TRIPOS>ATOM
   1 C1             0.1107     1.1569    -0.6965 C.2     
   2 N2             0.0184    -0.1438    -0.6179 N.2     
   3 N3            -1.1208    -0.7663    -0.1081 N.am    
   4 C4            -2.2618    -0.0996     0.1332 C.2     
   5 C5            -2.3931     1.3532    -0.2595 C.3     
   6 C6            -1.0091     1.9734    -0.2041 C.2     
   7 C7            -2.9569     1.4574    -1.6780 C.3     
   8 O8            -0.8367     3.0970     0.2214 O.2     
   9 C9            -1.0736    -2.1392     0.1619 C.ar    
  10 O10           -3.1905    -0.6665     0.6685 O.2     
  11 C11           -3.2001     2.9055    -2.0168 C.ar    
  12 C12           -0.0101    -2.6697     0.8787 C.ar    
  13 C13           -2.0943    -2.9704    -0.2825 C.ar    
  14 C14           -2.0494    -4.3253    -0.0164 C.ar    
  15 C15           -0.9885    -4.8585     0.6937 C.ar    
  16 C16            0.0336    -4.0301     1.1451 C.ar    
  17 C17           -2.1986     3.6535    -2.6079 C.ar    
  18 C18           -4.4264     3.4821    -1.7410 C.ar    
  19 C19           -4.6526     4.8089    -2.0511 C.ar    
  20 C20           -3.6472     5.5639    -2.6399 C.ar    
  21 C21           -2.4186     4.9809    -2.9200 C.ar    
  22 F22           -0.9475    -6.1838     0.9528 F       
  23 N23           -3.8737     6.9107    -2.9558 N.pl3   
  24 N24           -5.0605     7.6213    -2.7340 N.2     
  25 C25           -4.8890     8.8471    -3.1591 C.2     
  26 C26           -3.5891     8.9575    -3.6649 C.2     
  27 C27           -2.9835     7.7557    -3.5234 C.2     
  28 N28            1.1054    -4.5690     1.8677 N.am    
  29 C29            1.7698    -3.8055     2.7576 C.2     
  30 O30            1.5003    -2.6279     2.8670 O.2     
  31 C31            2.8477    -4.4147     3.6167 C.3     
  32 O32            1.2204     1.7434    -1.2172 O.3     
  33 C33            2.2629     0.8753    -1.6663 C.3     
  34 H34           -3.0536     1.8662     0.4395 H       
  35 H35           -2.2432     1.0339    -2.3847 H       
  36 H36           -3.8963     0.9077    -1.7370 H       
  37 H37            0.7822    -2.0243     1.2282 H       
  38 H38           -2.9241    -2.5569    -0.8365 H       
  39 H39           -2.8440    -4.9694    -0.3629 H       
  40 H40           -1.2431     3.1994    -2.8256 H       
  41 H41           -5.2081     2.8943    -1.2830 H       
  42 H42           -5.6107     5.2585    -1.8362 H       
  43 H43           -1.6346     5.5657    -3.3780 H       
  44 H44           -5.6244     9.6374    -3.1255 H       
  45 H45           -3.1460     9.8461    -4.0897 H       
  46 H46           -1.9731     7.5129    -3.8177 H       
  47 H47            1.3695    -5.4918     1.7277 H       
  48 H48            2.9468    -5.4738     3.3786 H       
  49 H49            3.7941    -3.9091     3.4252 H       
  50 H50            2.5816    -4.3020     4.6677 H       
  51 H51            1.8800     0.2238    -2.4518 H       
  52 H52            3.0878     1.4705    -2.0579 H       
  53 H53            2.6160     0.2696    -0.8317 H       
@<TRIPOS>BOND
   1    1    2 2
   2    1   32 1
   3    1    6 1
   4    2    3 1
   5    3    4 am
   6    3    9 1
   7    4    5 1
   8    4   10 2
   9    5    6 1
  10    5    7 1
  11    5   34 1
  12    6    8 2
  13    7   11 1
  14    7   35 1
  15    7   36 1
  16    9   12 ar
  17    9   13 ar
  18   11   17 ar
  19   11   18 ar
  20   12   16 ar
  21   12   37 1
  22   13   14 ar
  23   13   38 1
  24   14   15 ar
  25   14   39 1
  26   15   16 ar
  27   15   22 1
  28   16   28 1
  29   17   21 ar
  30   17   40 1
  31   18   19 ar
  32   18   41 1
  33   19   20 ar
  34   19   42 1
  35   20   21 ar
  36   20   23 1
  37   21   43 1
  38   23   24 1
  39   23   27 1
  40   24   25 2
  41   25   26 1
  42   25   44 1
  43   26   27 2
  44   26   45 1
  45   27   46 1
  46   28   29 am
  47   28   47 1
  48   29   30 2
  49   29   31 1
  50   31   48 1
  51   31   49 1
  52   31   50 1
  53   32   33 1
  54   33   51 1
  55   33   52 1
  56   33   53 1

#	End of record

