#	Name: ASD00071109
#	Creating user name:	WinNT
#	Creation time:	15. 06. 2019 18:30

#	Modifying user name:	WinNT
#	Modification time:	15. 06. 2019 18:30

#	Program:	/corina/corina34_cracker 3.40 0067  02.08.2006

@<TRIPOS>MOLECULE
ASD00071109
  40   41    0    0    0
SMALL
NO_CHARGES


@<TRIPOS>ATOM
   1 N1            -0.0169     1.3932     0.0097 N.pl3   
   2 C2             0.0021    -0.0041     0.0020 C.ar    
   3 C3             1.2137    -0.6835    -0.0132 C.ar    
   4 C4             1.2294    -2.0643    -0.0208 C.ar    
   5 C5             0.0396    -2.7712    -0.0133 C.ar    
   6 C6            -1.1686    -2.0971     0.0014 C.ar    
   7 C7            -1.1902    -0.7161     0.0153 C.ar    
   8 C8             2.5096     0.0856    -0.0219 C.3     
   9 N9             2.8212     0.5354     1.3414 N.3     
  10 C10            4.0809     1.2905     1.3716 C.3     
  11 C11            4.3668     1.7344     2.7831 C.ar    
  12 C12            5.1036     0.9216     3.6307 C.ar    
  13 C13            5.3655     1.3325     4.9301 C.ar    
  14 C14            4.8926     2.5507     5.3792 C.ar    
  15 C15            4.1581     3.3626     4.5363 C.ar    
  16 C16            3.8983     2.9586     3.2343 C.ar    
  17 O17            3.1806     3.7600     2.4040 O.3     
  18 C18            2.7297     5.0074     2.9358 C.3     
  19 O19            5.5686    -0.2768     3.1897 O.3     
  20 C20            6.3203    -1.0621     4.1172 C.3     
  21 Cl21           0.0632    -4.5071    -0.0229 Cl      
  22 H22            0.8165     1.8896     0.0044 H       
  23 H23           -0.8634     1.8667     0.0163 H       
  24 H24            2.1711    -2.5930    -0.0330 H       
  25 H25           -2.0955    -2.6513     0.0069 H       
  26 H26           -2.1335    -0.1904     0.0320 H       
  27 H27            3.3114    -0.5576    -0.3844 H       
  28 H28            2.4139     0.9514    -0.6772 H       
  29 H29            2.0635     1.0807     1.7243 H       
  30 H30            4.8936     0.6556     1.0187 H       
  31 H31            3.9961     2.1646     0.7259 H       
  32 H32            5.9391     0.6996     5.5909 H       
  33 H33            5.0972     2.8686     6.3909 H       
  34 H34            3.7895     4.3143     4.8896 H       
  35 H35            3.5889     5.6019     3.2462 H       
  36 H36            2.1711     5.5476     2.1715 H       
  37 H37            2.0850     4.8240     3.7955 H       
  38 H38            7.2017    -0.5048     4.4345 H       
  39 H39            5.7021    -1.2895     4.9856 H       
  40 H40            6.6306    -1.9911     3.6389 H       
@<TRIPOS>BOND
   1    1    2 1
   2    1   22 1
   3    1   23 1
   4    2    3 ar
   5    2    7 ar
   6    3    4 ar
   7    3    8 1
   8    4    5 ar
   9    4   24 1
  10    5    6 ar
  11    5   21 1
  12    6    7 ar
  13    6   25 1
  14    7   26 1
  15    8    9 1
  16    8   27 1
  17    8   28 1
  18    9   10 1
  19    9   29 1
  20   10   11 1
  21   10   30 1
  22   10   31 1
  23   11   12 ar
  24   11   16 ar
  25   12   13 ar
  26   12   19 1
  27   13   14 ar
  28   13   32 1
  29   14   15 ar
  30   14   33 1
  31   15   16 ar
  32   15   34 1
  33   16   17 1
  34   17   18 1
  35   18   35 1
  36   18   36 1
  37   18   37 1
  38   19   20 1
  39   20   38 1
  40   20   39 1
  41   20   40 1

#	End of record

