#	Name: ASD05430053
#	Creating user name:	WinNT
#	Creation time:	15. 06. 2019 20:59

#	Modifying user name:	WinNT
#	Modification time:	15. 06. 2019 20:59

#	Program:	/corina/corina34_cracker 3.40 0067  02.08.2006

@<TRIPOS>MOLECULE
ASD05430053
  60   65    0    0    0
SMALL
NO_CHARGES


@<TRIPOS>ATOM
   1 C1            -0.0013     1.4218     0.1924 C.ar    
   2 C2             0.0096     0.0427    -0.0123 C.ar    
   3 C3             1.2151    -0.6324    -0.1535 C.ar    
   4 C4             2.4064     0.0576    -0.0914 C.ar    
   5 C5             2.4033     1.4412     0.1137 C.ar    
   6 C6             1.1896     2.1207     0.2553 C.ar    
   7 O7             4.9115     0.1384     0.3110 O.3     
   8 C8             4.8452     1.5083     0.1981 C.2     
   9 C9             3.6744     2.1799     0.1802 C.2     
  10 C10            5.9662    -0.3508     1.1504 C.3     
  11 C11            7.3838     0.0921     0.7570 C.3     
  12 N12            7.3350     1.5217     0.4521 N.pl3   
  13 C13            6.1586     2.1907     0.0981 C.2     
  14 C14           -1.5730    -1.5549    -1.0485 C.2     
  15 N15           -1.1996    -0.6646    -0.0754 N.pl3   
  16 C16           -2.8017    -1.9985    -0.7208 C.2     
  17 N17           -3.1727    -1.3989     0.4201 N.2     
  18 C18           -2.2215    -0.5976     0.8165 C.2     
  19 C19           -3.6185    -2.9959    -1.5012 C.3     
  20 C20            8.3963     2.5256     0.4600 C.3     
  21 O21            7.8278     3.6112    -0.3031 O.3     
  22 N22            6.4246     3.3840    -0.3098 N.2     
  23 C23            8.7006     2.9672     1.8683 C.ar    
  24 C24            9.6550     1.9864    -0.2226 C.3     
  25 O25           10.7106     2.9416    -0.0983 O.3     
  26 C26            8.4204     2.1285     2.9310 C.ar    
  27 C27            9.2651     4.2084     2.0962 C.ar    
  28 C28            9.5454     4.6142     3.3872 C.ar    
  29 C29            9.2603     3.7771     4.4527 C.ar    
  30 C30            8.6994     2.5323     4.2229 C.ar    
  31 F31            9.5339     4.1727     5.7151 F       
  32 C32           -1.1200     3.4925     0.5319 C.3     
  33 O33           -1.1835     2.0801     0.3244 O.3     
  34 C34            5.6668    -0.5087     2.6408 C.3     
  35 C35            5.8043    -1.7462     1.7510 C.3     
  36 H36            1.2189    -1.7007    -0.3119 H       
  37 H37            3.3424    -0.4701    -0.2008 H       
  38 H38            1.1826     3.1891     0.4135 H       
  39 H39            3.6705     3.2593     0.2148 H       
  40 H40            8.0696    -0.0857     1.5853 H       
  41 H41            7.7134    -0.4620    -0.1219 H       
  42 H42           -0.9948    -1.8419    -1.9144 H       
  43 H43           -2.2433     0.0156     1.7053 H       
  44 H44           -3.3946    -4.0032    -1.1499 H       
  45 H45           -4.6789    -2.7885    -1.3580 H       
  46 H46           -3.3727    -2.9175    -2.5602 H       
  47 H47            9.9534     1.0514     0.2516 H       
  48 H48            9.4482     1.8088    -1.2780 H       
  49 H49           11.5412     2.6656    -0.5093 H       
  50 H50            7.9829     1.1576     2.7515 H       
  51 H51            9.4874     4.8611     1.2650 H       
  52 H52            9.9871     5.5836     3.5649 H       
  53 H53            8.4763     1.8787     5.0532 H       
  54 H54           -0.6164     3.9616    -0.3134 H       
  55 H55           -2.1300     3.8925     0.6207 H       
  56 H56           -0.5650     3.7008     1.4466 H       
  57 H57            6.4753    -0.3002     3.3415 H       
  58 H58            4.6668    -0.2441     2.9842 H       
  59 H59            4.8945    -2.2958     1.5091 H       
  60 H60            6.7031    -2.3519     1.8664 H       
@<TRIPOS>BOND
   1    1    2 ar
   2    1    6 ar
   3    1   33 1
   4    2    3 ar
   5    2   15 1
   6    3    4 ar
   7    3   36 1
   8    4    5 ar
   9    4   37 1
  10    5    6 ar
  11    5    9 1
  12    6   38 1
  13    7    8 1
  14    7   10 1
  15    8    9 2
  16    8   13 1
  17    9   39 1
  18   10   11 1
  19   10   34 1
  20   10   35 1
  21   11   12 1
  22   11   40 1
  23   11   41 1
  24   12   13 1
  25   12   20 1
  26   13   22 2
  27   14   15 1
  28   14   16 2
  29   14   42 1
  30   15   18 1
  31   16   17 1
  32   16   19 1
  33   17   18 2
  34   18   43 1
  35   19   44 1
  36   19   45 1
  37   19   46 1
  38   20   21 1
  39   20   23 1
  40   20   24 1
  41   21   22 1
  42   23   26 ar
  43   23   27 ar
  44   24   25 1
  45   24   47 1
  46   24   48 1
  47   25   49 1
  48   26   30 ar
  49   26   50 1
  50   27   28 ar
  51   27   51 1
  52   28   29 ar
  53   28   52 1
  54   29   30 ar
  55   29   31 1
  56   30   53 1
  57   32   33 1
  58   32   54 1
  59   32   55 1
  60   32   56 1
  61   34   35 1
  62   34   57 1
  63   34   58 1
  64   35   59 1
  65   35   60 1

#	End of record

