#	Name: ASD08150323
#	Creating user name:	WinNT
#	Creation time:	15. 06. 2019 21:15

#	Modifying user name:	WinNT
#	Modification time:	15. 06. 2019 21:15

#	Program:	/corina/corina34_cracker 3.40 0067  02.08.2006

@<TRIPOS>MOLECULE
ASD08150323
  87   94    0    0    0
SMALL
NO_CHARGES


@<TRIPOS>ATOM
   1 N1            -0.2303     0.7056    -0.1301 N.am    
   2 C2             0.6446     1.0299    -1.1018 C.2     
   3 C3             1.8597     0.3298    -1.2448 C.2     
   4 C4             2.1657    -0.6871    -0.3992 C.2     
   5 C5             1.2477    -1.0307     0.6244 C.ar    
   6 C6             1.5162    -2.0765     1.5281 C.ar    
   7 N7             0.6675    -2.3913     2.4715 N.ar    
   8 C8            -0.4967    -1.7447     2.6345 C.ar    
   9 C9            -0.8495    -0.6784     1.7711 C.ar    
  10 C10            0.0468    -0.3135     0.7391 C.ar    
  11 C11           -2.0655    -0.0116     1.9488 C.ar    
  12 C12           -2.9150    -0.4026     2.9712 C.ar    
  13 C13           -2.5588    -1.4585     3.8220 C.ar    
  14 C14           -1.3795    -2.1165     3.6618 C.ar    
  15 O15            0.3818     1.9411    -1.8682 O.2     
  16 C16           -4.2067     0.2992     3.1668 C.ar    
  17 C17           -1.4289     1.4204    -0.0056 C.ar    
  18 C18           -1.4860     2.5439     0.8093 C.ar    
  19 C19           -2.6665     3.2481     0.9320 C.ar    
  20 C20           -3.7980     2.8331     0.2406 C.ar    
  21 C21           -3.7407     1.7096    -0.5741 C.ar    
  22 C22           -2.5582     1.0088    -0.7011 C.ar    
  23 N23           -4.9941     3.5460     0.3652 N.3     
  24 C24           -5.1686     4.4811    -0.7541 C.3     
  25 C25           -5.0595     4.2428     1.6568 C.3     
  26 C26           -6.4515     4.8595     1.8308 C.3     
  27 N27           -6.7415     5.6969     0.6570 N.am    
  28 C28           -6.5651     5.1076    -0.6790 C.3     
  29 C29           -4.4853     1.4784     2.4574 C.ar    
  30 N30           -5.6168     2.1184     2.6097 N.ar    
  31 C31           -6.5633     1.6819     3.4475 C.ar    
  32 C32           -6.3570     0.4981     4.1998 C.ar    
  33 C33           -5.1512    -0.2077     4.0477 C.ar    
  34 C34           -7.7722     2.3835     3.5980 C.ar    
  35 C35           -8.7207     1.9202     4.4570 C.ar    
  36 C36           -8.5157     0.7565     5.1958 C.ar    
  37 C37           -7.3584     0.0495     5.0777 C.ar    
  38 C38           -7.1582     6.9705     0.8018 C.2     
  39 C39           -7.4497     7.8108    -0.4147 C.3     
  40 O40           -7.2987     7.4401     1.9111 O.2     
  41 N41           -7.7893     9.1773     0.0040 N.3     
  42 C42           -9.0651     9.2031     0.7328 C.3     
  43 C43           -7.8263    10.0876    -1.1491 C.3     
  44 C44           -8.1042    11.5119    -0.6626 C.3     
  45 N45           -9.3800    11.5376     0.0662 N.3     
  46 C46           -9.3430    10.6273     1.2193 C.3     
  47 C47           -9.7196    12.9041     0.4850 C.3     
  48 C48           -4.9679     1.2590    -1.3238 C.3     
  49 F49           -4.7048     0.0412    -1.9601 F       
  50 F50           -6.0290     1.0967    -0.4266 F       
  51 F51           -5.3093     2.2209    -2.2806 F       
  52 H52            2.5493     0.6031    -2.0297 H       
  53 H53            3.0951    -1.2269    -0.5053 H       
  54 H54            2.4400    -2.6291     1.4401 H       
  55 H55           -2.3404     0.8023     1.2944 H       
  56 H56           -3.2298    -1.7531     4.6153 H       
  57 H57           -1.1212    -2.9279     4.3261 H       
  58 H58           -0.6066     2.8663     1.3470 H       
  59 H59           -2.7110     4.1214     1.5658 H       
  60 H60           -2.5124     0.1377    -1.3380 H       
  61 H61           -4.4143     5.2656    -0.6937 H       
  62 H62           -5.0611     3.9444    -1.6967 H       
  63 H63           -4.8728     3.5331     2.4628 H       
  64 H64           -4.3067     5.0306     1.6836 H       
  65 H65           -7.1960     4.0671     1.9082 H       
  66 H66           -6.4703     5.4727     2.7317 H       
  67 H67           -6.6590     5.8849    -1.4374 H       
  68 H68           -7.3205     4.3391    -0.8428 H       
  69 H69           -3.7483     1.8667     1.7701 H       
  70 H70           -4.9622    -1.1130     4.6056 H       
  71 H71           -7.9476     3.2876     3.0338 H       
  72 H72           -9.6474     2.4636     4.5683 H       
  73 H73           -9.2847     0.4113     5.8710 H       
  74 H74           -7.2108    -0.8511     5.6552 H       
  75 H75           -6.5703     7.8359    -1.0582 H       
  76 H76           -8.2881     7.3795    -0.9619 H       
  77 H77           -9.8689     8.8818     0.0704 H       
  78 H78           -9.0085     8.5309     1.5890 H       
  79 H79           -6.8665    10.0602    -1.6650 H       
  80 H80           -8.6160     9.7763    -1.8329 H       
  81 H81           -7.3004    11.8331    -0.0002 H       
  82 H82           -8.1608    12.1840    -1.5188 H       
  83 H83          -10.3028    10.6547     1.7352 H       
  84 H84           -8.5533    10.9386     1.9031 H       
  85 H85           -9.8063    13.5426    -0.3942 H       
  86 H86          -10.6680    12.8945     1.0220 H       
  87 H87           -8.9363    13.2893     1.1378 H       
@<TRIPOS>BOND
   1    1    2 am
   2    1   10 1
   3    1   17 1
   4    2    3 1
   5    2   15 2
   6    3    4 2
   7    3   52 1
   8    4    5 1
   9    4   53 1
  10    5    6 ar
  11    5   10 ar
  12    6    7 ar
  13    6   54 1
  14    7    8 ar
  15    8    9 ar
  16    8   14 ar
  17    9   10 ar
  18    9   11 ar
  19   11   12 ar
  20   11   55 1
  21   12   13 ar
  22   12   16 1
  23   13   14 ar
  24   13   56 1
  25   14   57 1
  26   16   29 ar
  27   16   33 ar
  28   17   18 ar
  29   17   22 ar
  30   18   19 ar
  31   18   58 1
  32   19   20 ar
  33   19   59 1
  34   20   21 ar
  35   20   23 1
  36   21   22 ar
  37   21   48 1
  38   22   60 1
  39   23   24 1
  40   23   25 1
  41   24   28 1
  42   24   61 1
  43   24   62 1
  44   25   26 1
  45   25   63 1
  46   25   64 1
  47   26   27 1
  48   26   65 1
  49   26   66 1
  50   27   28 1
  51   27   38 am
  52   28   67 1
  53   28   68 1
  54   29   30 ar
  55   29   69 1
  56   30   31 ar
  57   31   32 ar
  58   31   34 ar
  59   32   33 ar
  60   32   37 ar
  61   33   70 1
  62   34   35 ar
  63   34   71 1
  64   35   36 ar
  65   35   72 1
  66   36   37 ar
  67   36   73 1
  68   37   74 1
  69   38   39 1
  70   38   40 2
  71   39   41 1
  72   39   75 1
  73   39   76 1
  74   41   42 1
  75   41   43 1
  76   42   46 1
  77   42   77 1
  78   42   78 1
  79   43   44 1
  80   43   79 1
  81   43   80 1
  82   44   45 1
  83   44   81 1
  84   44   82 1
  85   45   46 1
  86   45   47 1
  87   46   83 1
  88   46   84 1
  89   47   85 1
  90   47   86 1
  91   47   87 1
  92   48   49 1
  93   48   50 1
  94   48   51 1

#	End of record

