#	Name: ASD04220030
#	Creating user name:	WinNT
#	Creation time:	15. 06. 2019 20:48

#	Modifying user name:	WinNT
#	Modification time:	15. 06. 2019 20:48

#	Program:	/corina/corina34_cracker 3.40 0067  02.08.2006

@<TRIPOS>MOLECULE
ASD04220030
  49   51    0    0    0
SMALL
NO_CHARGES


@<TRIPOS>ATOM
   1 C1             0.0508     1.6680    -0.0419 C.3     
   2 N2            -0.0579     0.2126     0.1055 N.am    
   3 C3             0.7944    -0.6192    -0.7604 C.3     
   4 C4             2.2507    -0.3428    -0.3900 C.3     
   5 C5             2.5089     1.1381    -0.2979 C.ar    
   6 C6             3.8318     1.5701    -0.3858 C.ar    
   7 C7             4.1401     2.9162    -0.2994 C.ar    
   8 C8             3.1302     3.8426    -0.1243 C.ar    
   9 C9             1.8157     3.4171    -0.0408 C.ar    
  10 C10            1.5037     2.0624    -0.1310 C.ar    
  11 C11            0.4794    -2.0761    -0.5381 C.2     
  12 O12            1.1347    -2.7234     0.2438 O.2     
  13 O13           -0.5293    -2.6545    -1.2087 O.3     
  14 O14            0.8211     4.3284     0.1309 O.3     
  15 O15            4.8278     0.6603    -0.5574 O.3     
  16 C16           -0.9032    -0.3407     0.9975 C.2     
  17 C17           -1.6729     0.5367     1.9508 C.3     
  18 C18           -2.5527    -0.3351     2.8490 C.3     
  19 C19           -3.3341     0.5557     3.8169 C.3     
  20 O20           -1.0445    -1.5447     1.0329 O.2     
  21 C21           -4.2008    -0.3030     4.7016 C.ar    
  22 C22           -3.6728    -0.8651     5.8546 C.ar    
  23 C23           -4.4704    -1.6549     6.6690 C.ar    
  24 C24           -5.7910    -1.8815     6.3321 C.ar    
  25 C25           -6.3189    -1.3191     5.1797 C.ar    
  26 C26           -5.5222    -0.5255     4.3674 C.ar    
  27 O27           -7.6187    -1.5421     4.8481 O.3     
  28 O28           -2.3730    -0.6422     6.1861 O.3     
  29 H29           -0.4661     1.9803    -0.9493 H       
  30 H30           -0.4050     2.1549     0.8202 H       
  31 H31            0.6239    -0.3595    -1.8051 H       
  32 H32            2.4699    -0.8053     0.5724 H       
  33 H33            2.9020    -0.7736    -1.1505 H       
  34 H34            5.1675     3.2419    -0.3684 H       
  35 H35            3.3653     4.8943    -0.0531 H       
  36 H36           -0.6934    -3.5911    -1.0328 H       
  37 H37            0.4529     4.6692    -0.6957 H       
  38 H38            5.0332     0.4720    -1.4834 H       
  39 H39           -0.9749     1.1041     2.5664 H       
  40 H40           -2.3007     1.2249     1.3849 H       
  41 H41           -3.2507    -0.9025     2.2334 H       
  42 H42           -1.9249    -1.0233     3.4149 H       
  43 H43           -2.6362     1.1231     4.4325 H       
  44 H44           -3.9620     1.2439     3.2510 H       
  45 H45           -4.0592    -2.0932     7.5663 H       
  46 H46           -6.4121    -2.4968     6.9662 H       
  47 H47           -5.9345    -0.0842     3.4720 H       
  48 H48           -8.2345    -0.8910     5.2113 H       
  49 H49           -2.2369     0.1382     6.7408 H       
@<TRIPOS>BOND
   1    1    2 1
   2    1   10 1
   3    1   29 1
   4    1   30 1
   5    2    3 1
   6    2   16 am
   7    3    4 1
   8    3   11 1
   9    3   31 1
  10    4    5 1
  11    4   32 1
  12    4   33 1
  13    5    6 ar
  14    5   10 ar
  15    6    7 ar
  16    6   15 1
  17    7    8 ar
  18    7   34 1
  19    8    9 ar
  20    8   35 1
  21    9   10 ar
  22    9   14 1
  23   11   12 2
  24   11   13 1
  25   13   36 1
  26   14   37 1
  27   15   38 1
  28   16   17 1
  29   16   20 2
  30   17   18 1
  31   17   39 1
  32   17   40 1
  33   18   19 1
  34   18   41 1
  35   18   42 1
  36   19   21 1
  37   19   43 1
  38   19   44 1
  39   21   22 ar
  40   21   26 ar
  41   22   23 ar
  42   22   28 1
  43   23   24 ar
  44   23   45 1
  45   24   25 ar
  46   24   46 1
  47   25   26 ar
  48   25   27 1
  49   26   47 1
  50   27   48 1
  51   28   49 1

#	End of record

