#	Name: ASD01900796
#	Creating user name:	WinNT
#	Creation time:	15. 06. 2019 19:52

#	Modifying user name:	WinNT
#	Modification time:	15. 06. 2019 19:52

#	Program:	/corina/corina34_cracker 3.40 0067  02.08.2006

@<TRIPOS>MOLECULE
ASD01900796
  29   31    0    0    0
SMALL
NO_CHARGES


@<TRIPOS>ATOM
   1 C1            -1.2605    -0.7631     0.1326 C.ar    
   2 N2            -0.0742    -0.0431     0.0493 N.pl3   
   3 C3             1.1584    -0.7142     0.0873 C.2     
   4 C4            -2.4738    -0.0863     0.2135 C.ar    
   5 N5            -1.2264    -2.0869     0.1287 N.ar    
   6 C6            -2.3291    -2.8077     0.2061 C.ar    
   7 C7            -3.5662    -2.2018     0.2945 C.ar    
   8 C8            -3.6461    -0.8151     0.2959 C.ar    
   9 N9             1.2445    -2.0108     0.3047 N.2     
  10 C10            2.4396    -2.5295     0.3190 C.2     
  11 S11            3.6247    -1.2596     0.0265 S.3     
  12 C12            2.3235    -0.0779    -0.1008 C.2     
  13 C13            2.7516    -3.9574     0.5455 C.2     
  14 C14            3.6051    -4.7260    -0.1956 C.2     
  15 C15            2.2276    -4.7736     1.5696 C.2     
  16 N16            2.7404    -5.9677     1.4382 N.2     
  17 N17            3.6069    -5.9631     0.3387 N.pl3   
  18 C18            1.2473    -4.3431     2.6300 C.3     
  19 F19           -0.0544    -4.6332     2.2072 F       
  20 F20            1.5152    -5.0297     3.8192 F       
  21 F21            1.3709    -2.9668     2.8483 F       
  22 H22           -0.0981     0.9229    -0.0352 H       
  23 H23           -2.4994     0.9934     0.2124 H       
  24 H24           -2.2628    -3.8856     0.1998 H       
  25 H25           -4.4632    -2.7999     0.3574 H       
  26 H26           -4.6021    -0.3173     0.3645 H       
  27 H27            2.4441     0.9782    -0.2919 H       
  28 H28            4.1742    -4.4010    -1.0541 H       
  29 H29            4.1205    -6.7204     0.0167 H       
@<TRIPOS>BOND
   1    1    2 1
   2    1    4 ar
   3    1    5 ar
   4    2    3 1
   5    2   22 1
   6    3    9 1
   7    3   12 2
   8    4    8 ar
   9    4   23 1
  10    5    6 ar
  11    6    7 ar
  12    6   24 1
  13    7    8 ar
  14    7   25 1
  15    8   26 1
  16    9   10 2
  17   10   11 1
  18   10   13 1
  19   11   12 1
  20   12   27 1
  21   13   14 2
  22   13   15 1
  23   14   17 1
  24   14   28 1
  25   15   16 2
  26   15   18 1
  27   16   17 1
  28   17   29 1
  29   18   19 1
  30   18   20 1
  31   18   21 1

#	End of record

