#	Name: ASD01870117
#	Creating user name:	WinNT
#	Creation time:	15. 06. 2019 19:38

#	Modifying user name:	WinNT
#	Modification time:	15. 06. 2019 19:38

#	Program:	/corina/corina34_cracker 3.40 0067  02.08.2006

@<TRIPOS>MOLECULE
ASD01870117
  53   57    0    0    0
SMALL
NO_CHARGES


@<TRIPOS>ATOM
   1 C1            -0.0082     1.3530     0.0210 C.ar    
   2 C2             0.0189    -0.0377     0.0215 C.ar    
   3 C3            -1.1766    -0.7338     0.0339 C.ar    
   4 C4            -2.3631    -0.0129     0.0454 C.ar    
   5 C5            -2.3160     1.3670     0.0441 C.ar    
   6 N6            -1.1609     2.0046     0.0377 N.ar    
   7 N7             1.1856     2.0651     0.0086 N.3     
   8 C8             0.9345     3.5163     0.0104 C.3     
   9 C9             1.6857     4.1209     1.2106 C.3     
  10 C10            2.7546     3.0332     1.5507 C.3     
  11 C11            2.0150     1.7281     1.1829 C.3     
  12 C12            0.7604     4.1084     2.4406 C.3     
  13 N13            1.4865     3.4680     3.5442 N.am    
  14 C14            2.8462     3.1367     3.0885 C.3     
  15 C15            0.9897     3.2241     4.7731 C.2     
  16 N16           -0.2376     3.6715     5.1049 N.am    
  17 O17            1.6487     2.6004     5.5825 O.2     
  18 C18           -1.0951     4.5275     4.2673 C.3     
  19 C19           -0.9480     3.3800     6.3645 C.3     
  20 C20           -1.9539     4.5480     6.5361 C.3     
  21 C21           -2.3667     4.8126     5.0736 C.3     
  22 C22           -2.8410     6.2534     4.8876 C.3     
  23 C23           -4.2846     6.1643     4.3426 C.3     
  24 C24           -4.7796     4.7693     4.8018 C.3     
  25 C25           -3.5126     3.8863     4.6535 C.3     
  26 H26            0.9603    -0.5669     0.0120 H       
  27 H27           -1.1867    -1.8138     0.0342 H       
  28 H28           -3.3132    -0.5262     0.0548 H       
  29 H29           -3.2365     1.9317     0.0527 H       
  30 H30            1.3037     3.9561    -0.9161 H       
  31 H31           -0.1343     3.7060     0.1099 H       
  32 H32            2.1173     5.0987     0.9966 H       
  33 H33            3.7036     3.1626     1.0305 H       
  34 H34            1.3837     1.4058     2.0110 H       
  35 H35            2.7314     0.9474     0.9275 H       
  36 H36            0.4980     5.1300     2.7152 H       
  37 H37           -0.1437     3.5424     2.2163 H       
  38 H38            3.1639     2.1839     3.5120 H       
  39 H39            3.5417     3.9266     3.3722 H       
  40 H40           -0.5808     5.4614     4.0409 H       
  41 H41           -1.3492     4.0087     3.3429 H       
  42 H42           -1.4786     2.4309     6.2895 H       
  43 H43           -0.2468     3.3582     7.1987 H       
  44 H44           -2.8120     4.2405     7.1338 H       
  45 H45           -1.4686     5.4213     6.9719 H       
  46 H46           -2.8329     6.7771     5.8435 H       
  47 H47           -2.2012     6.7692     4.1716 H       
  48 H48           -4.9044     6.9501     4.7743 H       
  49 H49           -4.2862     6.2305     3.2546 H       
  50 H50           -5.1094     4.7995     5.8402 H       
  51 H51           -5.5782     4.4103     4.1525 H       
  52 H52           -3.3873     3.5681     3.6185 H       
  53 H53           -3.5687     3.0226     5.3161 H       
@<TRIPOS>BOND
   1    1    2 ar
   2    1    7 1
   3    1    6 ar
   4    2    3 ar
   5    2   26 1
   6    3    4 ar
   7    3   27 1
   8    4    5 ar
   9    4   28 1
  10    5    6 ar
  11    5   29 1
  12    7    8 1
  13    7   11 1
  14    8    9 1
  15    8   30 1
  16    8   31 1
  17    9   10 1
  18    9   12 1
  19    9   32 1
  20   10   11 1
  21   10   14 1
  22   10   33 1
  23   11   34 1
  24   11   35 1
  25   12   13 1
  26   12   36 1
  27   12   37 1
  28   13   14 1
  29   13   15 am
  30   14   38 1
  31   14   39 1
  32   15   16 am
  33   15   17 2
  34   16   18 1
  35   16   19 1
  36   18   21 1
  37   18   40 1
  38   18   41 1
  39   19   20 1
  40   19   42 1
  41   19   43 1
  42   20   21 1
  43   20   44 1
  44   20   45 1
  45   21   22 1
  46   21   25 1
  47   22   23 1
  48   22   46 1
  49   22   47 1
  50   23   24 1
  51   23   48 1
  52   23   49 1
  53   24   25 1
  54   24   50 1
  55   24   51 1
  56   25   52 1
  57   25   53 1

#	End of record

