#	Name: ASD00311041
#	Creating user name:	WinNT
#	Creation time:	15. 06. 2019 18:34

#	Modifying user name:	WinNT
#	Modification time:	15. 06. 2019 18:34

#	Program:	/corina/corina34_cracker 3.40 0067  02.08.2006

@<TRIPOS>MOLECULE
ASD00311041
  32   34    0    0    0
SMALL
NO_CHARGES


@<TRIPOS>ATOM
   1 C1            -0.0167     1.3795     0.0096 C.ar    
   2 C2             0.0021    -0.0041     0.0020 C.ar    
   3 N3             1.1410    -0.6698    -0.0120 N.ar    
   4 C4             2.3057    -0.0554    -0.0198 C.ar    
   5 C5             2.3727     1.3387    -0.0129 C.ar    
   6 C6             1.1803     2.0730     0.0019 C.ar    
   7 C7             4.8812     1.2734    -0.0362 C.2     
   8 C8             3.6809     2.0288    -0.0212 C.2     
   9 C9             7.2842    -0.2689    -0.0665 C.ar    
  10 C10            7.3195     1.1236    -0.0594 C.ar    
  11 C11            6.0782     1.9049    -0.0438 C.2     
  12 C12            8.4622    -1.0013    -0.0807 C.ar    
  13 C13            9.6838    -0.4004    -0.0878 C.ar    
  14 C14            9.7971     1.0015    -0.0817 C.ar    
  15 C15            8.6212     1.7891    -0.0672 C.ar    
  16 O16            3.7274     3.2454    -0.0151 O.2     
  17 N17           10.9936     1.5976    -0.0890 N.ar    
  18 C18            8.7317     3.1867    -0.0612 C.ar    
  19 C19            9.9854     3.7341    -0.0697 C.ar    
  20 C20           11.1039     2.9040    -0.0830 C.ar    
  21 H21           -0.9560     1.9124     0.0170 H       
  22 H22           -0.9310    -0.5479     0.0080 H       
  23 H23            3.2169    -0.6351    -0.0312 H       
  24 H24            1.1948     3.1529     0.0072 H       
  25 H25            4.8399     0.1942    -0.0417 H       
  26 H26            6.3336    -0.7815    -0.0564 H       
  27 H27            6.1195     2.9841    -0.0384 H       
  28 H28            8.4086    -2.0800    -0.0860 H       
  29 H29           10.5769    -1.0077    -0.0984 H       
  30 H30            7.8521     3.8134    -0.0505 H       
  31 H31           10.1077     4.8071    -0.0653 H       
  32 H32           12.0882     3.3484    -0.0896 H       
@<TRIPOS>BOND
   1    1    2 ar
   2    1    6 ar
   3    1   21 1
   4    2    3 ar
   5    2   22 1
   6    3    4 ar
   7    4    5 ar
   8    4   23 1
   9    5    6 ar
  10    5    8 1
  11    6   24 1
  12    7    8 1
  13    7   11 2
  14    7   25 1
  15    8   16 2
  16    9   10 ar
  17    9   12 ar
  18    9   26 1
  19   10   11 1
  20   10   15 ar
  21   11   27 1
  22   12   13 ar
  23   12   28 1
  24   13   14 ar
  25   13   29 1
  26   14   15 ar
  27   14   17 ar
  28   15   18 ar
  29   17   20 ar
  30   18   19 ar
  31   18   30 1
  32   19   20 ar
  33   19   31 1
  34   20   32 1

#	End of record

