#	Name: ASD01890474
#	Creating user name:	WinNT
#	Creation time:	15. 06. 2019 19:51

#	Modifying user name:	WinNT
#	Modification time:	15. 06. 2019 19:51

#	Program:	/corina/corina34_cracker 3.40 0067  02.08.2006

@<TRIPOS>MOLECULE
ASD01890474
  44   47    0    0    0
SMALL
NO_CHARGES


@<TRIPOS>ATOM
   1 C1            -0.0177     1.4572     0.0101 C.2     
   2 C2             0.0021    -0.0041     0.0020 C.2     
   3 C3             1.1820    -0.6641    -0.0128 C.2     
   4 O4             1.0283     2.0803     0.0034 O.2     
   5 C5            -1.3207     3.5647     0.0277 C.ar    
   6 C6            -1.3079     2.1789     0.0201 C.ar    
   7 C7            -2.5130     1.4540     0.0214 C.ar    
   8 C8            -3.7100     2.0939     0.0305 C.ar    
   9 C9            -3.7566     3.5000     0.0383 C.ar    
  10 C10           -4.9835     4.1841     0.0468 C.ar    
  11 C11           -4.9973     5.5455     0.0538 C.ar    
  12 C12           -3.8102     6.2757     0.0528 C.ar    
  13 C13           -2.6025     5.6484     0.0447 C.ar    
  14 C14           -2.5482     4.2428     0.0372 C.ar    
  15 C15            1.2394    -4.8971    -0.0352 C.ar    
  16 C16            2.4393    -4.1839    -0.0433 C.ar    
  17 C17            2.4234    -2.8180    -0.0362 C.ar    
  18 C18            1.2019    -2.1332    -0.0209 C.ar    
  19 C19           -0.0006    -2.8510    -0.0128 C.ar    
  20 C20            0.0206    -4.2168    -0.0199 C.ar    
  21 C21            1.2594    -6.3791    -0.0490 C.ar    
  22 C22            0.0631    -7.0954    -0.0410 C.ar    
  23 C23            0.0881    -8.4750    -0.0539 C.ar    
  24 C24            1.2969    -9.1475    -0.0744 C.ar    
  25 C25            2.4870    -8.4423    -0.0820 C.ar    
  26 C26            2.4746    -7.0624    -0.0759 C.ar    
  27 H27           -0.9258    -0.5567     0.0079 H       
  28 H28            2.1098    -0.1114    -0.0187 H       
  29 H29           -0.3931     4.1178     0.0308 H       
  30 H30           -2.4857     0.3744     0.0147 H       
  31 H31           -4.6270     1.5234     0.0314 H       
  32 H32           -5.9119     3.6324     0.0473 H       
  33 H33           -5.9426     6.0677     0.0600 H       
  34 H34           -3.8493     7.3550     0.0582 H       
  35 H35           -1.6904     6.2269     0.0436 H       
  36 H36            3.3810    -4.7125    -0.0548 H       
  37 H37            3.3521    -2.2667    -0.0421 H       
  38 H38           -0.9439    -2.3252    -0.0006 H       
  39 H39           -0.9065    -4.7709    -0.0140 H       
  40 H40           -0.8811    -6.5714    -0.0243 H       
  41 H41           -0.8379    -9.0309    -0.0477 H       
  42 H42            1.3115   -10.2274    -0.0841 H       
  43 H43            3.4277    -8.9727    -0.0976 H       
  44 H44            3.4042    -6.5129    -0.0871 H       
@<TRIPOS>BOND
   1    1    2 1
   2    1    4 2
   3    1    6 1
   4    2    3 2
   5    2   27 1
   6    3   18 1
   7    3   28 1
   8    5    6 ar
   9    5   14 ar
  10    5   29 1
  11    6    7 ar
  12    7    8 ar
  13    7   30 1
  14    8    9 ar
  15    8   31 1
  16    9   10 ar
  17    9   14 ar
  18   10   11 ar
  19   10   32 1
  20   11   12 ar
  21   11   33 1
  22   12   13 ar
  23   12   34 1
  24   13   14 ar
  25   13   35 1
  26   15   16 ar
  27   15   20 ar
  28   15   21 1
  29   16   17 ar
  30   16   36 1
  31   17   18 ar
  32   17   37 1
  33   18   19 ar
  34   19   20 ar
  35   19   38 1
  36   20   39 1
  37   21   22 ar
  38   21   26 ar
  39   22   23 ar
  40   22   40 1
  41   23   24 ar
  42   23   41 1
  43   24   25 ar
  44   24   42 1
  45   25   26 ar
  46   25   43 1
  47   26   44 1

#	End of record

