#	Name: ASD01911305
#	Creating user name:	WinNT
#	Creation time:	15. 06. 2019 19:57

#	Modifying user name:	WinNT
#	Modification time:	15. 06. 2019 19:57

#	Program:	/corina/corina34_cracker 3.40 0067  02.08.2006

@<TRIPOS>MOLECULE
ASD01911305
  34   36    0    0    0
SMALL
NO_CHARGES


@<TRIPOS>ATOM
   1 C1            -0.0167     1.3797     0.0096 C.ar    
   2 C2             0.0021    -0.0041     0.0020 C.ar    
   3 N3             1.1339    -0.6802    -0.0085 N.ar    
   4 C4             2.3111    -0.0724    -0.0124 C.ar    
   5 C5             2.3667     1.3321    -0.0127 C.ar    
   6 C6             1.1823     2.0727     0.0019 C.ar    
   7 O7             3.4477    -0.8049    -0.0090 O.3     
   8 C8             4.6501    -0.2089    -0.4944 C.3     
   9 C9             4.8892     1.1230     0.2319 C.3     
  10 C10            3.6782     2.0005    -0.0333 C.2     
  11 O11            3.7860     3.1889    -0.2509 O.2     
  12 C12           -1.3035    -0.7567     0.0064 C.3     
  13 C13           -1.3397    -1.7219    -1.1803 C.3     
  14 C14           -2.6453    -2.4745    -1.1759 C.ar    
  15 C15           -3.7383    -1.9665    -1.8528 C.ar    
  16 C16           -4.9359    -2.6569    -1.8487 C.ar    
  17 C17           -5.0404    -3.8556    -1.1682 C.ar    
  18 C18           -3.9471    -4.3641    -0.4921 C.ar    
  19 C19           -2.7483    -3.6758    -0.4997 C.ar    
  20 H20           -0.9557     1.9132     0.0170 H       
  21 H21            1.2010     3.1525     0.0067 H       
  22 H22            5.4889    -0.8797    -0.3090 H       
  23 H23            4.5593    -0.0276    -1.5654 H       
  24 H24            4.9941     0.9485     1.3027 H       
  25 H25            5.7875     1.6022    -0.1571 H       
  26 H26           -1.3953    -1.3195     0.9353 H       
  27 H27           -2.1301    -0.0508    -0.0740 H       
  28 H28           -1.2479    -1.1591    -2.1092 H       
  29 H29           -0.5131    -2.4278    -1.0999 H       
  30 H30           -3.6567    -1.0300    -2.3845 H       
  31 H31           -5.7900    -2.2596    -2.3770 H       
  32 H32           -5.9762    -4.3946    -1.1645 H       
  33 H33           -4.0288    -5.3004     0.0399 H       
  34 H34           -1.8942    -4.0731     0.0285 H       
@<TRIPOS>BOND
   1    1    2 ar
   2    1    6 ar
   3    1   20 1
   4    2    3 ar
   5    2   12 1
   6    3    4 ar
   7    4    5 ar
   8    4    7 1
   9    5    6 ar
  10    5   10 1
  11    6   21 1
  12    7    8 1
  13    8    9 1
  14    8   22 1
  15    8   23 1
  16    9   10 1
  17    9   24 1
  18    9   25 1
  19   10   11 2
  20   12   13 1
  21   12   26 1
  22   12   27 1
  23   13   14 1
  24   13   28 1
  25   13   29 1
  26   14   15 ar
  27   14   19 ar
  28   15   16 ar
  29   15   30 1
  30   16   17 ar
  31   16   31 1
  32   17   18 ar
  33   17   32 1
  34   18   19 ar
  35   18   33 1
  36   19   34 1

#	End of record

