#	Name: ASD01915718
#	Creating user name:	WinNT
#	Creation time:	15. 06. 2019 20:06

#	Modifying user name:	WinNT
#	Modification time:	15. 06. 2019 20:06

#	Program:	/corina/corina34_cracker 3.40 0067  02.08.2006

@<TRIPOS>MOLECULE
ASD01915718
  43   46    0    0    0
SMALL
NO_CHARGES


@<TRIPOS>ATOM
   1 C1            -0.0166     1.3728     0.0096 C.2     
   2 N2             0.0021    -0.0041     0.0020 N.pl3   
   3 C3            -1.2434    -0.7807    -0.0179 C.3     
   4 C4            -2.3411     0.0067     0.6955 C.3     
   5 N5            -2.4044     1.3988     0.2637 N.am    
   6 C6            -1.2813     2.1228     0.0392 C.2     
   7 C7             1.2845     1.7904    -0.0006 C.2     
   8 C8             2.0437     0.6124    -0.0024 C.2     
   9 N9             1.2133    -0.4042     0.0045 N.2     
  10 C10            3.5482     0.5278    -0.0116 C.3     
  11 O11            4.0995     1.8462    -0.0185 O.3     
  12 C12            5.4524     1.9481    -0.0273 C.ar    
  13 O13           -1.3171     3.3271    -0.1281 O.2     
  14 N14            6.1919     0.8514    -0.0291 N.ar    
  15 C15            6.0475     3.2028    -0.0400 C.ar    
  16 C16            7.4287     3.2931    -0.0488 C.ar    
  17 C17            8.1688     2.1191    -0.0447 C.ar    
  18 C18            7.5101     0.9054    -0.0376 C.ar    
  19 C19           -3.6531     1.9997     0.0768 C.ar    
  20 C20           -4.2753     2.6549     1.1319 C.ar    
  21 C21           -4.2714     1.9477    -1.1656 C.ar    
  22 C22           -5.5049     2.5422    -1.3470 C.ar    
  23 C23           -6.1241     3.1887    -0.2932 C.ar    
  24 C24           -5.5084     3.2473     0.9439 C.ar    
  25 C25           -3.5971     1.2437    -2.3149 C.3     
  26 H26           -1.5404    -0.9656    -1.0502 H       
  27 H27           -1.0875    -1.7314     0.4922 H       
  28 H28           -3.3017    -0.4681     0.4956 H       
  29 H29           -2.1535    -0.0209     1.7689 H       
  30 H30            1.6485     2.8071    -0.0064 H       
  31 H31            3.8878    -0.0034     0.8776 H       
  32 H32            3.8765    -0.0079    -0.9023 H       
  33 H33            5.4406     4.0963    -0.0432 H       
  34 H34            7.9192     4.2552    -0.0591 H       
  35 H35            9.2482     2.1543    -0.0517 H       
  36 H36            8.0813    -0.0112    -0.0343 H       
  37 H37           -3.7953     2.7007     2.0983 H       
  38 H38           -5.9861     2.5024    -2.3130 H       
  39 H39           -7.0884     3.6531    -0.4377 H       
  40 H40           -5.9949     3.7527     1.7651 H       
  41 H41           -3.8967     0.1957    -2.3252 H       
  42 H42           -3.8914     1.7150    -3.2527 H       
  43 H43           -2.5155     1.3112    -2.1981 H       
@<TRIPOS>BOND
   1    1    2 1
   2    1    7 2
   3    1    6 1
   4    2    3 1
   5    2    9 1
   6    3    4 1
   7    3   26 1
   8    3   27 1
   9    4    5 1
  10    4   28 1
  11    4   29 1
  12    5    6 am
  13    5   19 1
  14    6   13 2
  15    7    8 1
  16    7   30 1
  17    8    9 2
  18    8   10 1
  19   10   11 1
  20   10   31 1
  21   10   32 1
  22   11   12 1
  23   12   14 ar
  24   12   15 ar
  25   14   18 ar
  26   15   16 ar
  27   15   33 1
  28   16   17 ar
  29   16   34 1
  30   17   18 ar
  31   17   35 1
  32   18   36 1
  33   19   20 ar
  34   19   21 ar
  35   20   24 ar
  36   20   37 1
  37   21   22 ar
  38   21   25 1
  39   22   23 ar
  40   22   38 1
  41   23   24 ar
  42   23   39 1
  43   24   40 1
  44   25   41 1
  45   25   42 1
  46   25   43 1

#	End of record

