#	Name: ASD00431293
#	Creating user name:	WinNT
#	Creation time:	15. 06. 2019 18:35

#	Modifying user name:	WinNT
#	Modification time:	15. 06. 2019 18:35

#	Program:	/corina/corina34_cracker 3.40 0067  02.08.2006

@<TRIPOS>MOLECULE
ASD00431293
  22   23    0    0    0
SMALL
NO_CHARGES


@<TRIPOS>ATOM
   1 S1             0.3584     4.5940     0.0363 S.3     
   2 C2             0.8451     6.2849     0.1615 C.2     
   3 N3             2.1397     6.3196     0.2056 N.2     
   4 N4             2.7362     5.2082     0.1529 N.2     
   5 C5             2.0093     4.1373     0.0601 C.2     
   6 O6             2.4788     2.8671    -0.0066 O.3     
   7 C7             3.8214     2.6882    -0.1250 C.ar    
   8 C8             4.6510     3.7803    -0.3341 C.ar    
   9 C9             6.0149     3.5985    -0.4538 C.ar    
  10 C10            6.5552     2.3241    -0.3650 C.ar    
  11 C11            5.7258     1.2321    -0.1559 C.ar    
  12 C12            4.3624     1.4143    -0.0309 C.ar    
  13 O13            7.8979     2.1452    -0.4833 O.3     
  14 C14            8.3854     0.8057    -0.3816 C.3     
  15 Br15          -0.3137     7.7780     0.2202 Br      
  16 H16            4.2303     4.7726    -0.4036 H       
  17 H17            6.6607     4.4486    -0.6170 H       
  18 H18            6.1466     0.2398    -0.0871 H       
  19 H19            3.7171     0.5645     0.1360 H       
  20 H20            9.4696     0.8042    -0.4934 H       
  21 H21            8.1200     0.3955     0.5927 H       
  22 H22            7.9383     0.1958    -1.1667 H       
@<TRIPOS>BOND
   1    1    2 1
   2    1    5 1
   3    2    3 2
   4    2   15 1
   5    3    4 1
   6    4    5 2
   7    5    6 1
   8    6    7 1
   9    7    8 ar
  10    7   12 ar
  11    8    9 ar
  12    8   16 1
  13    9   10 ar
  14    9   17 1
  15   10   11 ar
  16   10   13 1
  17   11   12 ar
  18   11   18 1
  19   12   19 1
  20   13   14 1
  21   14   20 1
  22   14   21 1
  23   14   22 1

#	End of record

