#	Name: ASD01810331
#	Creating user name:	WinNT
#	Creation time:	15. 06. 2019 19:24

#	Modifying user name:	WinNT
#	Modification time:	15. 06. 2019 19:24

#	Program:	/corina/corina34_cracker 3.40 0067  02.08.2006

@<TRIPOS>MOLECULE
ASD01810331
  55   61    0    0    0
SMALL
NO_CHARGES


@<TRIPOS>ATOM
   1 C1            -0.0184     1.5080     0.0103 C.3     
   2 C2            -0.7293     2.1780     1.1668 C.3     
   3 C3            -0.6347     2.1087    -1.2230 C.ar    
   4 C4             0.0021    -0.0041     0.0020 C.3     
   5 C5             1.4837     1.8977    -0.0019 C.3     
   6 C6            -1.7878     1.3372     1.8603 C.3     
   7 N7            -1.6001     3.2196     0.5427 N.am    
   8 C8            -1.5281     3.1117    -0.8287 C.ar    
   9 C9            -0.4179     1.7947    -2.5520 C.ar    
  10 N10            1.2443    -0.4283     0.6634 N.3     
  11 C11           -1.2024    -0.6852     0.6174 C.3     
  12 C12            2.2545     0.5972     0.2759 C.3     
  13 C13           -1.3978    -0.1020     2.0284 C.3     
  14 C14           -2.3900     2.0484     3.0428 C.3     
  15 C15           -2.4127     3.9433     1.3397 C.2     
  16 C16           -2.2241     3.8493    -1.7931 C.ar    
  17 C17           -1.1201     2.5296    -3.5031 C.ar    
  18 C18            1.2106    -0.4602     2.1156 C.3     
  19 C19           -0.0978    -0.2198     2.7774 C.2     
  20 C20           -2.6315     3.5308     2.7678 C.3     
  21 O21           -1.5615     1.9247     4.2035 O.3     
  22 O22           -2.9677     4.9293     0.9027 O.2     
  23 C23           -2.0000     3.5355    -3.1267 C.ar    
  24 C24           -0.1282     0.0399     4.0646 C.2     
  25 C25           -1.3846     0.5886     4.6831 C.3     
  26 H26           -0.0202     2.5961     1.8813 H       
  27 H27            0.0595    -0.3266    -1.0376 H       
  28 H28           -2.6048     1.3074     1.1394 H       
  29 H29           -2.1878    -0.6433     2.5490 H       
  30 H30           -3.3492     1.5830     3.2694 H       
  31 O31           -0.9408     2.2578    -4.8242 O.3     
  32 C32           -0.0231     1.2128    -5.1528 C.3     
  33 O33           -2.6602     4.2318    -4.0903 O.3     
  34 C34           -3.5548     5.2565    -3.6525 C.3     
  35 H35            1.7606     2.2981    -0.9772 H       
  36 H36            1.6887     2.6306     0.7784 H       
  37 H37            0.2676     1.0114    -2.8402 H       
  38 H38           -2.0870    -0.4904     0.0111 H       
  39 H39           -1.0268    -1.7590     0.6823 H       
  40 H40            2.7835     0.2784    -0.6222 H       
  41 H41            2.9618     0.7501     1.0911 H       
  42 H42           -2.9106     4.6336    -1.5102 H       
  43 H43            1.5725    -1.4370     2.4366 H       
  44 H44            1.9128     0.2884     2.4824 H       
  45 H45           -3.6585     3.7704     3.0431 H       
  46 H46           -1.9629     4.1132     3.4019 H       
  47 H47            0.7440    -0.1398     4.6755 H       
  48 H48           -1.2887     0.5958     5.7688 H       
  49 H49           -2.2376    -0.0242     4.3913 H       
  50 H50            0.9656     1.4634    -4.7685 H       
  51 H51           -0.3610     0.2784    -4.7047 H       
  52 H52            0.0259     1.0996    -6.2358 H       
  53 H53           -4.3304     4.8178    -3.0247 H       
  54 H54           -3.0020     6.0012    -3.0798 H       
  55 H55           -4.0145     5.7321    -4.5188 H       
@<TRIPOS>BOND
   1    1    4 1
   2    1    5 1
   3    1    2 1
   4    1    3 1
   5    2    6 1
   6    2    7 1
   7    2   26 1
   8    3    8 ar
   9    3    9 ar
  10    4   10 1
  11    4   11 1
  12    4   27 1
  13    5   12 1
  14    5   35 1
  15    5   36 1
  16    6   13 1
  17    6   28 1
  18    6   14 1
  19    7   15 am
  20    7    8 1
  21    8   16 ar
  22    9   17 ar
  23    9   37 1
  24   10   18 1
  25   10   12 1
  26   11   13 1
  27   11   38 1
  28   11   39 1
  29   12   40 1
  30   12   41 1
  31   13   19 1
  32   13   29 1
  33   14   20 1
  34   14   21 1
  35   14   30 1
  36   15   22 2
  37   15   20 1
  38   16   23 ar
  39   16   42 1
  40   17   23 ar
  41   17   31 1
  42   18   19 1
  43   18   43 1
  44   18   44 1
  45   19   24 2
  46   20   45 1
  47   20   46 1
  48   21   25 1
  49   23   33 1
  50   24   25 1
  51   24   47 1
  52   25   48 1
  53   25   49 1
  54   31   32 1
  55   32   50 1
  56   32   51 1
  57   32   52 1
  58   33   34 1
  59   34   53 1
  60   34   54 1
  61   34   55 1

#	End of record

