#	Name: ASD01915338
#	Creating user name:	WinNT
#	Creation time:	15. 06. 2019 20:05

#	Modifying user name:	WinNT
#	Modification time:	15. 06. 2019 20:05

#	Program:	/corina/corina34_cracker 3.40 0067  02.08.2006

@<TRIPOS>MOLECULE
ASD01915338
  34   36    0    0    0
SMALL
NO_CHARGES


@<TRIPOS>ATOM
   1 C1             0.0050     1.3279    -0.0312 C.2     
   2 N2             0.0196    -0.0235    -0.0402 N.pl3   
   3 C3            -1.2093    -0.6343    -0.0241 C.2     
   4 C4            -2.2945     0.1231    -0.0015 C.2     
   5 S5            -1.7014     1.7940     0.0058 S.3     
   6 N6             1.2433     1.7706    -0.0486 N.2     
   7 C7             2.0805     0.7376    -0.0689 C.2     
   8 N8             1.3934    -0.3733    -0.0653 N.2     
   9 C9            -3.7294    -0.3370     0.0189 C.3     
  10 C10           -1.3208    -2.1372    -0.0325 C.3     
  11 C11           -4.3797     0.0793     1.3398 C.3     
  12 O12           -4.4482     0.2702    -1.0870 O.3     
  13 C13           -5.4739    -0.4299    -1.6073 C.2     
  14 N14           -6.1826     0.0768    -2.6356 N.am    
  15 O15           -5.7605    -1.5185    -1.1498 O.2     
  16 C16           -7.1739    -0.6967    -3.2508 C.ar    
  17 C17           -7.0167    -2.0741    -3.3796 C.ar    
  18 C18           -8.0256    -2.7969    -3.9955 C.ar    
  19 C19           -9.1461    -2.1329    -4.4582 C.ar    
  20 N20           -9.2645    -0.8265    -4.3210 N.ar    
  21 C21           -8.3313    -0.1023    -3.7365 C.ar    
  22 H22            3.1582     0.8063    -0.0861 H       
  23 H23           -3.7644    -1.4222    -0.0771 H       
  24 H24           -0.3230    -2.5755    -0.0515 H       
  25 H25           -1.8458    -2.4676     0.8638 H       
  26 H26           -1.8744    -2.4555    -0.9159 H       
  27 H27           -5.4176    -0.2535     1.3546 H       
  28 H28           -3.8402    -0.3766     2.1700 H       
  29 H29           -4.3447     1.1645     1.4359 H       
  30 H30           -6.0058     0.9774    -2.9494 H       
  31 H31           -6.1301    -2.5669    -3.0090 H       
  32 H32           -7.9374    -3.8669    -4.1130 H       
  33 H33           -9.9355    -2.6915    -4.9390 H       
  34 H34           -8.4640     0.9654    -3.6423 H       
@<TRIPOS>BOND
   1    1    2 1
   2    1    6 2
   3    1    5 1
   4    2    3 1
   5    2    8 1
   6    3    4 2
   7    3   10 1
   8    4    5 1
   9    4    9 1
  10    6    7 1
  11    7    8 2
  12    7   22 1
  13    9   11 1
  14    9   12 1
  15    9   23 1
  16   10   24 1
  17   10   25 1
  18   10   26 1
  19   11   27 1
  20   11   28 1
  21   11   29 1
  22   12   13 1
  23   13   14 am
  24   13   15 2
  25   14   16 1
  26   14   30 1
  27   16   17 ar
  28   16   21 ar
  29   17   18 ar
  30   17   31 1
  31   18   19 ar
  32   18   32 1
  33   19   20 ar
  34   19   33 1
  35   20   21 ar
  36   21   34 1

#	End of record

