#	Name: ASD01120217
#	Creating user name:	WinNT
#	Creation time:	15. 06. 2019 18:59

#	Modifying user name:	WinNT
#	Modification time:	15. 06. 2019 18:59

#	Program:	/corina/corina34_cracker 3.40 0067  02.08.2006

@<TRIPOS>MOLECULE
ASD01120217
  44   47    0    0    0
SMALL
NO_CHARGES


@<TRIPOS>ATOM
   1 C1            -0.1513     0.6869     0.8002 C.ar    
   2 C2            -0.2731    -0.6945     0.7416 C.ar    
   3 C3            -1.5239    -1.2820     0.5757 C.ar    
   4 C4            -2.6581    -0.4759     0.4682 C.ar    
   5 C5            -2.5308     0.9184     0.5279 C.ar    
   6 C6            -1.2707     1.4935     0.7002 C.ar    
   7 O7            -3.9762    -0.7334     0.3050 O.3     
   8 C8            -4.6312     0.4400     0.2656 C.2     
   9 N9            -3.7859     1.4303     0.3967 N.2     
  10 N10           -5.9920     0.5794     0.1105 N.am    
  11 S11           -6.6865     2.0799     0.2024 S.o2    
  12 O12           -5.9273     2.9263    -0.6499 O.2     
  13 O13           -8.0863     1.8838     0.0566 O.2     
  14 C14           -6.4352     2.6713     1.8431 C.ar    
  15 C15           -7.0130     2.0109     2.9125 C.ar    
  16 C16           -6.8153     2.4751     4.2010 C.ar    
  17 C17           -6.0403     3.5980     4.4195 C.ar    
  18 C18           -5.4619     4.2584     3.3498 C.ar    
  19 C19           -5.6561     3.7918     2.0621 C.ar    
  20 Cl20          -7.9867     0.6002     2.6379 Cl      
  21 Cl21          -4.4883     5.6692     3.6243 Cl      
  22 O22            1.0754     1.2506     0.9625 O.3     
  23 C23            1.1318     2.6776     1.0148 C.3     
  24 C24           -2.5850    -3.4143     1.3129 C.ar    
  25 C25           -2.7009    -4.7887     1.2530 C.ar    
  26 C26           -1.8923    -5.5178     0.4015 C.ar    
  27 C27           -0.9590    -4.8723    -0.3983 C.ar    
  28 C28           -0.8365    -3.4938    -0.3454 C.ar    
  29 C29           -1.6509    -2.7585     0.5130 C.ar    
  30 O30           -0.1654    -5.5933    -1.2334 O.3     
  31 H31            0.6063    -1.3160     0.8247 H       
  32 H32           -1.1687     2.5677     0.7467 H       
  33 H33           -6.5440    -0.2014    -0.0526 H       
  34 H34           -7.2670     1.9600     5.0358 H       
  35 H35           -5.8863     3.9605     5.4251 H       
  36 H36           -5.2044     4.3070     1.2272 H       
  37 H37            2.1660     2.9957     1.1466 H       
  38 H38            0.7401     3.0910     0.0855 H       
  39 H39            0.5324     3.0344     1.8524 H       
  40 H40           -3.2210    -2.8470     1.9762 H       
  41 H41           -3.4252    -5.2956     1.8734 H       
  42 H42           -1.9866    -6.5928     0.3586 H       
  43 H43           -0.1106    -2.9904    -0.9667 H       
  44 H44           -0.5389    -5.7238    -2.1158 H       
@<TRIPOS>BOND
   1    1    2 ar
   2    1   22 1
   3    1    6 ar
   4    2    3 ar
   5    2   31 1
   6    3    4 ar
   7    3   29 1
   8    4    5 ar
   9    4    7 1
  10    5    6 ar
  11    5    9 1
  12    6   32 1
  13    7    8 1
  14    8    9 2
  15    8   10 1
  16   10   11 am
  17   10   33 1
  18   11   12 2
  19   11   13 2
  20   11   14 1
  21   14   15 ar
  22   14   19 ar
  23   15   16 ar
  24   15   20 1
  25   16   17 ar
  26   16   34 1
  27   17   18 ar
  28   17   35 1
  29   18   19 ar
  30   18   21 1
  31   19   36 1
  32   22   23 1
  33   23   37 1
  34   23   38 1
  35   23   39 1
  36   24   25 ar
  37   24   29 ar
  38   24   40 1
  39   25   26 ar
  40   25   41 1
  41   26   27 ar
  42   26   42 1
  43   27   28 ar
  44   27   30 1
  45   28   29 ar
  46   28   43 1
  47   30   44 1

#	End of record

