#	Name: ASD02030163
#	Creating user name:	WinNT
#	Creation time:	15. 06. 2019 20:14

#	Modifying user name:	WinNT
#	Modification time:	15. 06. 2019 20:14

#	Program:	/corina/corina34_cracker 3.40 0067  02.08.2006

@<TRIPOS>MOLECULE
ASD02030163
  57   61    0    0    0
SMALL
NO_CHARGES


@<TRIPOS>ATOM
   1 N1            -0.2206     1.3885    -0.1485 N.am    
   2 C2            -0.0808    -0.0517     0.1086 C.3     
   3 C3            -0.9944    -0.4312     1.2806 C.3     
   4 N4            -2.3346     0.1163     1.0277 N.am    
   5 C5            -2.4743     1.5566     0.7706 C.3     
   6 C6            -1.5614     1.9370    -0.3958 C.3     
   7 C7             0.8609     2.1928    -0.1519 C.2     
   8 C8             2.1858     1.6527     0.2257 C.2     
   9 N9             2.4888     0.3680     0.4685 N.2     
  10 N10            3.3022     2.3397     0.3839 N.2     
  11 N11            4.2321     1.5097     0.7112 N.pl3   
  12 N12            3.7436     0.3200     0.7628 N.2     
  13 O13            0.7479     3.3617    -0.4651 O.2     
  14 C14           -3.4161    -0.6879     1.0311 C.2     
  15 C15           -4.7664    -0.1096     0.8859 C.ar    
  16 O16           -3.2795    -1.8898     1.1538 O.2     
  17 C17           -1.4815     3.4606    -0.5097 C.3     
  18 C18           -2.1166     1.3499    -1.6951 C.3     
  19 C19            5.5680     1.8492     0.9672 C.ar    
  20 C20            6.4823     0.8631     1.3128 C.ar    
  21 C21            7.7979     1.2006     1.5639 C.ar    
  22 C22            8.2048     2.5189     1.4714 C.ar    
  23 C23            7.2965     3.5032     1.1273 C.ar    
  24 C24            5.9807     3.1713     0.8699 C.ar    
  25 C25           -5.7609    -0.8152     0.2048 C.ar    
  26 C26           -7.0206    -0.2717     0.0695 C.ar    
  27 C27           -7.3059     0.9780     0.6087 C.ar    
  28 C28           -6.3189     1.6846     1.2912 C.ar    
  29 C29           -5.0549     1.1424     1.4341 C.ar    
  30 O30           -6.5844     2.9057     1.8315 O.3     
  31 Cl31          -8.2552    -1.1504    -0.7775 Cl      
  32 O32           -8.5530     1.4984     0.4563 O.3     
  33 C33           -8.9116     2.5773     1.3261 C.3     
  34 C34           -7.7515     3.5815     1.3509 C.3     
  35 H35           -0.3733    -0.6120    -0.7795 H       
  36 H36            0.9543    -0.2792     0.3632 H       
  37 H37           -1.0523    -1.5166     1.3628 H       
  38 H38           -0.5966    -0.0125     2.2050 H       
  39 H39           -3.5095     1.7840     0.5160 H       
  40 H40           -2.1819     2.1168     1.6587 H       
  41 H41           -0.9739     3.8643     0.3664 H       
  42 H42           -0.9254     3.7292    -1.4078 H       
  43 H43           -2.4885     3.8738    -0.5687 H       
  44 H44           -3.1166     1.7450    -1.8742 H       
  45 H45           -1.4643     1.6223    -2.5248 H       
  46 H46           -2.1644     0.2641    -1.6119 H       
  47 H47            6.1651    -0.1667     1.3856 H       
  48 H48            8.5095     0.4340     1.8331 H       
  49 H49            9.2339     2.7804     1.6685 H       
  50 H50            7.6171     4.5321     1.0562 H       
  51 H51            5.2719     3.9404     0.6010 H       
  52 H52           -5.5431    -1.7858    -0.2160 H       
  53 H53           -4.2884     1.6907     1.9617 H       
  54 H54           -9.8123     3.0655     0.9539 H       
  55 H55           -9.0887     2.1955     2.3315 H       
  56 H56           -7.9965     4.4100     2.0155 H       
  57 H57           -7.5698     3.9583     0.3443 H       
@<TRIPOS>BOND
   1    1    2 1
   2    1    7 am
   3    1    6 1
   4    2    3 1
   5    2   35 1
   6    2   36 1
   7    3    4 1
   8    3   37 1
   9    3   38 1
  10    4    5 1
  11    4   14 am
  12    5    6 1
  13    5   39 1
  14    5   40 1
  15    6   17 1
  16    6   18 1
  17    7    8 1
  18    7   13 2
  19    8    9 1
  20    8   10 2
  21    9   12 2
  22   10   11 1
  23   11   12 1
  24   11   19 1
  25   14   15 1
  26   14   16 2
  27   15   25 ar
  28   15   29 ar
  29   17   41 1
  30   17   42 1
  31   17   43 1
  32   18   44 1
  33   18   45 1
  34   18   46 1
  35   19   20 ar
  36   19   24 ar
  37   20   21 ar
  38   20   47 1
  39   21   22 ar
  40   21   48 1
  41   22   23 ar
  42   22   49 1
  43   23   24 ar
  44   23   50 1
  45   24   51 1
  46   25   26 ar
  47   25   52 1
  48   26   27 ar
  49   26   31 1
  50   27   28 ar
  51   27   32 1
  52   28   29 ar
  53   28   30 1
  54   29   53 1
  55   30   34 1
  56   32   33 1
  57   33   34 1
  58   33   54 1
  59   33   55 1
  60   34   56 1
  61   34   57 1

#	End of record

