#	Name: ASD04590242
#	Creating user name:	WinNT
#	Creation time:	15. 06. 2019 20:50

#	Modifying user name:	WinNT
#	Modification time:	15. 06. 2019 20:50

#	Program:	/corina/corina34_cracker 3.40 0067  02.08.2006

@<TRIPOS>MOLECULE
ASD04590242
  68   71    0    0    0
SMALL
NO_CHARGES


@<TRIPOS>ATOM
   1 N1            -0.0153     1.2802     0.0091 N.pl3   
   2 N2             0.0021    -0.0041     0.0020 N.2     
   3 C3             1.2456    -0.4440    -0.0122 C.2     
   4 C4             2.0904     0.6960    -0.0142 C.2     
   5 C5             1.2524     1.7668    -0.0004 C.2     
   6 C6             1.6764    -1.8547    -0.0232 C.2     
   7 N7             0.7571    -2.8402    -0.0194 N.am    
   8 N8             3.4929     0.7146    -0.0275 N.am    
   9 O9             2.8611    -2.1284    -0.0356 O.2     
  10 C10            4.1513     1.8905    -0.0274 C.2     
  11 C11            5.6174     1.9099    -0.0413 C.2     
  12 O12            3.5289     2.9365    -0.0159 O.2     
  13 C13            1.1850    -4.2412    -0.0303 C.3     
  14 C14            1.9146    -6.1625     1.3905 C.3     
  15 C15            1.4677    -4.6993     1.4019 C.3     
  16 C16            6.4052     3.0253    -0.0429 C.2     
  17 C17            0.0781    -5.1079    -0.6339 C.3     
  18 C18            0.5250    -6.5712    -0.6452 C.3     
  19 C19            0.8076    -7.0292     0.7869 C.3     
  20 C20            1.2546    -8.4924     0.7756 C.3     
  21 C21            2.5259    -8.6309    -0.0644 C.3     
  22 C22            1.5372    -8.9505     2.2078 C.3     
  23 C23            0.1476    -9.3592     0.1720 C.3     
  24 O24            6.4245     0.8288    -0.0489 O.3     
  25 C25            7.7029     1.2285    -0.0603 C.2     
  26 C26            7.7361     2.5794    -0.0571 C.2     
  27 C27            8.9060     0.3211    -0.0714 C.3     
  28 N28            9.3090     0.0253     1.3100 N.3     
  29 C29           10.3234    -1.0382     1.3466 C.3     
  30 C30            8.1452    -0.3364     2.1323 C.3     
  31 C31            8.6010    -0.5778     3.5738 C.3     
  32 O32            9.6091    -1.5921     3.5863 O.3     
  33 C33           10.7573    -1.2724     2.7960 C.3     
  34 H34           -0.8184     1.8242     0.0160 H       
  35 H35            1.5406     2.8076     0.0017 H       
  36 H36           -0.1880    -2.6218    -0.0095 H       
  37 H37            3.9889    -0.1190    -0.0367 H       
  38 H38            2.0907    -4.3398    -0.6287 H       
  39 H39            2.8203    -6.2611     0.7921 H       
  40 H40            2.1160    -6.4888     2.4108 H       
  41 H41            2.2563    -4.0818     1.8319 H       
  42 H42            0.5620    -4.6007     2.0003 H       
  43 H43            6.0694     4.0517    -0.0347 H       
  44 H44           -0.8276    -5.0093    -0.0355 H       
  45 H45           -0.1233    -4.7816    -1.6542 H       
  46 H46           -0.2636    -7.1886    -1.0752 H       
  47 H47            1.4307    -6.6698    -1.2437 H       
  48 H48           -0.0980    -6.9306     1.3854 H       
  49 H49            3.3145    -8.0134     0.3656 H       
  50 H50            2.8443    -9.6733    -0.0725 H       
  51 H51            2.3245    -8.3045    -1.0847 H       
  52 H52            0.6315    -8.8519     2.8062 H       
  53 H53            1.8556    -9.9929     2.1997 H       
  54 H54            2.3259    -8.3330     2.6378 H       
  55 H55           -0.0537    -9.0328    -0.8483 H       
  56 H56            0.4660   -10.4016     0.1639 H       
  57 H57           -0.7581    -9.2605     0.7704 H       
  58 H58            8.6204     3.1994    -0.0642 H       
  59 H59            8.6557    -0.6079    -0.5837 H       
  60 H60            9.7275     0.8132    -0.5920 H       
  61 H61            9.9020    -1.9574     0.9397 H       
  62 H62           11.1865    -0.7384     0.7522 H       
  63 H63            7.4184     0.4755     2.1115 H       
  64 H64            7.6890    -1.2444     1.7380 H       
  65 H65            9.0084     0.3454     3.9861 H       
  66 H66            7.7513    -0.9017     4.1748 H       
  67 H67           11.4671    -2.0987     2.8344 H       
  68 H68           11.2274    -0.3695     3.1856 H       
@<TRIPOS>BOND
   1    1    2 1
   2    1    5 1
   3    1   34 1
   4    2    3 2
   5    3    4 1
   6    3    6 1
   7    4    5 2
   8    4    8 1
   9    5   35 1
  10    6    7 am
  11    6    9 2
  12    7   13 1
  13    7   36 1
  14    8   10 am
  15    8   37 1
  16   10   12 2
  17   10   11 1
  18   11   16 2
  19   11   24 1
  20   13   17 1
  21   13   15 1
  22   13   38 1
  23   14   15 1
  24   14   19 1
  25   14   39 1
  26   14   40 1
  27   15   41 1
  28   15   42 1
  29   16   26 1
  30   16   43 1
  31   17   18 1
  32   17   44 1
  33   17   45 1
  34   18   19 1
  35   18   46 1
  36   18   47 1
  37   19   20 1
  38   19   48 1
  39   20   21 1
  40   20   22 1
  41   20   23 1
  42   21   49 1
  43   21   50 1
  44   21   51 1
  45   22   52 1
  46   22   53 1
  47   22   54 1
  48   23   55 1
  49   23   56 1
  50   23   57 1
  51   24   25 1
  52   25   26 2
  53   25   27 1
  54   26   58 1
  55   27   28 1
  56   27   59 1
  57   27   60 1
  58   28   29 1
  59   28   30 1
  60   29   33 1
  61   29   61 1
  62   29   62 1
  63   30   31 1
  64   30   63 1
  65   30   64 1
  66   31   32 1
  67   31   65 1
  68   31   66 1
  69   32   33 1
  70   33   67 1
  71   33   68 1

#	End of record

