#	Name: ASD04880096
#	Creating user name:	WinNT
#	Creation time:	15. 06. 2019 20:52

#	Modifying user name:	WinNT
#	Modification time:	15. 06. 2019 20:52

#	Program:	/corina/corina34_cracker 3.40 0067  02.08.2006

@<TRIPOS>MOLECULE
ASD04880096
  51   54    0    0    0
SMALL
NO_CHARGES


@<TRIPOS>ATOM
   1 C1            -0.0144     1.2118     0.0087 C.2     
   2 O2             0.0473    -0.0024     0.0315 O.2     
   3 N3             1.1163     1.9430    -0.0484 N.am    
   4 N4             1.1797     3.3276    -0.1913 N.2     
   5 C5             2.3785     3.7994    -0.2199 C.2     
   6 C6             3.3706     2.6664    -0.0850 C.3     
   7 C7             2.4854     1.4102     0.0364 C.3     
   8 C8             2.7287     5.2242    -0.3628 C.ar    
   9 C9             1.7205     6.1851    -0.4803 C.ar    
  10 C10            2.0544     7.5193    -0.6141 C.ar    
  11 C11            3.3937     7.9042    -0.6321 C.ar    
  12 C12            4.3944     6.9510    -0.5161 C.ar    
  13 C13            4.0689     5.6180    -0.3755 C.ar    
  14 O14            3.7200     9.2171    -0.7643 O.3     
  15 C15            5.1116     9.5418    -0.7752 C.3     
  16 O16            1.0760     8.4569    -0.7286 O.3     
  17 C17           -0.2748     7.9914    -0.7028 C.3     
  18 C18           -3.7348     1.7777    -0.0257 C.ar    
  19 C19           -2.5011     1.1358    -0.0540 C.ar    
  20 C20           -1.3296     1.8856     0.0375 C.ar    
  21 C21           -1.4019     3.2755     0.1570 C.ar    
  22 C22           -2.6299     3.9047     0.1848 C.ar    
  23 C23           -3.7936     3.1655     0.0939 C.ar    
  24 C24           -4.9864     0.9870    -0.1288 C.ar    
  25 C25           -6.2230     1.6284    -0.1006 C.ar    
  26 C26           -7.3839     0.8881    -0.1968 C.ar    
  27 C27           -7.3213    -0.4881    -0.3206 C.ar    
  28 C28           -6.0964    -1.1300    -0.3487 C.ar    
  29 C29           -4.9291    -0.3990    -0.2599 C.ar    
  30 H30            4.0055     2.6069    -0.9690 H       
  31 H31            3.9750     2.7923     0.8133 H       
  32 H32            2.6462     0.9166     0.9948 H       
  33 H33            2.6815     0.7238    -0.7873 H       
  34 H34            0.6830     5.8855    -0.4669 H       
  35 H35            5.4310     7.2536    -0.5309 H       
  36 H36            4.8500     4.8784    -0.2800 H       
  37 H37            5.5967     9.0341    -1.6089 H       
  38 H38            5.2324    10.6194    -0.8861 H       
  39 H39            5.5672     9.2196     0.1612 H       
  40 H40           -0.4359     7.2976    -1.5280 H       
  41 H41           -0.4658     7.4826     0.2421 H       
  42 H42           -0.9531     8.8387    -0.8029 H       
  43 H43           -2.4511     0.0609    -0.1462 H       
  44 H44           -0.4955     3.8584     0.2281 H       
  45 H45           -2.6814     4.9795     0.2777 H       
  46 H46           -4.7514     3.6641     0.1159 H       
  47 H47           -6.2730     2.7028    -0.0032 H       
  48 H48           -8.3429     1.3843    -0.1750 H       
  49 H49           -8.2322    -1.0636    -0.3953 H       
  50 H50           -6.0533    -2.2049    -0.4449 H       
  51 H51           -3.9731    -0.9007    -0.2868 H       
@<TRIPOS>BOND
   1    1    2 2
   2    1    3 am
   3    1   20 1
   4    3    4 1
   5    3    7 1
   6    4    5 2
   7    5    6 1
   8    5    8 1
   9    6    7 1
  10    6   30 1
  11    6   31 1
  12    7   32 1
  13    7   33 1
  14    8    9 ar
  15    8   13 ar
  16    9   10 ar
  17    9   34 1
  18   10   11 ar
  19   10   16 1
  20   11   12 ar
  21   11   14 1
  22   12   13 ar
  23   12   35 1
  24   13   36 1
  25   14   15 1
  26   15   37 1
  27   15   38 1
  28   15   39 1
  29   16   17 1
  30   17   40 1
  31   17   41 1
  32   17   42 1
  33   18   19 ar
  34   18   23 ar
  35   18   24 1
  36   19   20 ar
  37   19   43 1
  38   20   21 ar
  39   21   22 ar
  40   21   44 1
  41   22   23 ar
  42   22   45 1
  43   23   46 1
  44   24   25 ar
  45   24   29 ar
  46   25   26 ar
  47   25   47 1
  48   26   27 ar
  49   26   48 1
  50   27   28 ar
  51   27   49 1
  52   28   29 ar
  53   28   50 1
  54   29   51 1

#	End of record

