#	Name: ASD01916153
#	Creating user name:	WinNT
#	Creation time:	15. 06. 2019 20:06

#	Modifying user name:	WinNT
#	Modification time:	15. 06. 2019 20:06

#	Program:	/corina/corina34_cracker 3.40 0067  02.08.2006

@<TRIPOS>MOLECULE
ASD01916153
  42   45    0    0    0
SMALL
NO_CHARGES


@<TRIPOS>ATOM
   1 C1             0.3445     1.4388    -0.5423 C.ar    
   2 C2             0.3152     0.0591    -0.4811 C.ar    
   3 C3             1.5020    -0.6589    -0.4419 C.ar    
   4 C4             2.7163     0.0104    -0.4642 C.ar    
   5 C5             2.7415     1.3926    -0.5256 C.ar    
   6 C6             1.5552     2.1058    -0.5645 C.ar    
   7 O7             1.4743    -2.0163    -0.3813 O.3     
   8 C8             2.7341    -2.6898    -0.3436 C.3     
   9 C9             2.5062    -4.1781    -0.2783 C.2     
  10 C10            1.2602    -4.8175    -0.2570 C.2     
  11 N11            3.4396    -5.0966    -0.2373 N.2     
  12 N12            2.8184    -6.3474    -0.1872 N.pl3   
  13 C13            1.4807    -6.1443    -0.1956 C.2     
  14 C14            3.4673    -7.6607    -0.1433 C.3     
  15 C15            2.4640    -8.7033     0.3618 C.3     
  16 N16            1.1828    -8.5211    -0.3372 N.am    
  17 C17            0.4571    -7.2535    -0.1375 C.3     
  18 C18            0.6870    -9.4832    -1.1403 C.2     
  19 C19           -0.6706    -9.3408    -1.7159 C.ar    
  20 O20            1.3537   -10.4674    -1.3924 O.2     
  21 C21           -1.1259   -10.2528    -2.6668 C.ar    
  22 C22           -3.1164    -9.1290    -2.7866 C.ar    
  23 C23           -2.6680    -8.2223    -1.8364 C.ar    
  24 N24           -1.4609    -8.3455    -1.3226 N.ar    
  25 N25           -2.3375   -10.1221    -3.1768 N.ar    
  26 F26            3.9237     2.0463    -0.5474 F       
  27 H27           -0.5795     1.9968    -0.5773 H       
  28 H28           -0.6313    -0.4607    -0.4634 H       
  29 H29            3.6412    -0.5464    -0.4334 H       
  30 H30            1.5758     3.1846    -0.6124 H       
  31 H31            3.3022    -2.4483    -1.2419 H       
  32 H32            3.2917    -2.3687     0.5362 H       
  33 H33            0.2953    -4.3330    -0.2849 H       
  34 H34            3.8039    -7.9340    -1.1434 H       
  35 H35            4.3226    -7.6218     0.5314 H       
  36 H36            2.8479    -9.7040     0.1633 H       
  37 H37            2.3152    -8.5757     1.4340 H       
  38 H38           -0.0316    -7.2542     0.8368 H       
  39 H39           -0.2836    -7.1208    -0.9261 H       
  40 H40           -0.4891   -11.0646    -2.9862 H       
  41 H41           -4.1066    -9.0248    -3.2051 H       
  42 H42           -3.3080    -7.4117    -1.5206 H       
@<TRIPOS>BOND
   1    1    2 ar
   2    1    6 ar
   3    1   27 1
   4    2    3 ar
   5    2   28 1
   6    3    4 ar
   7    3    7 1
   8    4    5 ar
   9    4   29 1
  10    5    6 ar
  11    5   26 1
  12    6   30 1
  13    7    8 1
  14    8    9 1
  15    8   31 1
  16    8   32 1
  17    9   10 1
  18    9   11 2
  19   10   13 2
  20   10   33 1
  21   11   12 1
  22   12   13 1
  23   12   14 1
  24   13   17 1
  25   14   15 1
  26   14   34 1
  27   14   35 1
  28   15   16 1
  29   15   36 1
  30   15   37 1
  31   16   17 1
  32   16   18 am
  33   17   38 1
  34   17   39 1
  35   18   19 1
  36   18   20 2
  37   19   21 ar
  38   19   24 ar
  39   21   25 ar
  40   21   40 1
  41   22   23 ar
  42   22   25 ar
  43   22   41 1
  44   23   24 ar
  45   23   42 1

#	End of record

