#	Name: ASD01880313
#	Creating user name:	WinNT
#	Creation time:	15. 06. 2019 19:40

#	Modifying user name:	WinNT
#	Modification time:	15. 06. 2019 19:40

#	Program:	/corina/corina34_cracker 3.40 0067  02.08.2006

@<TRIPOS>MOLECULE
ASD01880313
  43   45    0    0    0
SMALL
NO_CHARGES


@<TRIPOS>ATOM
   1 C1            -0.0163     1.3530     0.0095 C.2     
   2 C2             0.0021    -0.0041     0.0020 C.2     
   3 N3            -1.1588    -0.7125     0.0098 N.am    
   4 C4            -2.3493    -0.0837     0.0245 C.2     
   5 C5            -2.4050     1.3200     0.0326 C.2     
   6 C6            -1.2440     2.0358     0.0307 C.2     
   7 O7            -3.3823    -0.7346     0.0305 O.2     
   8 C8            -1.1136    -2.1768     0.0015 C.3     
   9 C9            -1.0839    -2.6865     1.4193 C.ar    
  10 C10           -2.2670    -2.9573     2.0811 C.ar    
  11 C11           -2.2404    -3.4248     3.3815 C.ar    
  12 C12           -1.0294    -3.6218     4.0209 C.ar    
  13 C13            0.1543    -3.3506     3.3581 C.ar    
  14 C14            0.1266    -2.8885     2.0558 C.ar    
  15 Cl15          -0.9953    -4.2084     5.6544 Cl      
  16 O16            1.1520     2.0509     0.0021 O.3     
  17 C17            2.3618     1.2905    -0.0136 C.3     
  18 C18            3.5432     2.2261    -0.0198 C.ar    
  19 C19            4.0956     2.6481     1.1753 C.ar    
  20 C20            5.1786     3.5058     1.1723 C.ar    
  21 C21            5.7118     3.9436    -0.0313 C.ar    
  22 C22            5.1557     3.5187    -1.2291 C.ar    
  23 C23            4.0763     2.6565    -1.2207 C.ar    
  24 O24            6.7769     4.7877    -0.0369 O.3     
  25 C25            7.2733     5.1973    -1.3128 C.3     
  26 H26            0.9474    -0.5262    -0.0106 H       
  27 H27           -3.3582     1.8275     0.0441 H       
  28 H28           -1.2682     3.1155     0.0372 H       
  29 H29           -1.9969    -2.5648    -0.5057 H       
  30 H30           -0.2179    -2.5096    -0.5231 H       
  31 H31           -3.2123    -2.8032     1.5820 H       
  32 H32           -3.1648    -3.6360     3.8985 H       
  33 H33            1.0999    -3.5042     3.8567 H       
  34 H34            1.0506    -2.6768     1.5382 H       
  35 H35            2.4045     0.6573     0.8727 H       
  36 H36            2.3875     0.6669    -0.9072 H       
  37 H37            3.6799     2.3073     2.1120 H       
  38 H38            5.6096     3.8354     2.1061 H       
  39 H39            5.5690     3.8581    -2.1674 H       
  40 H40            3.6430     2.3254    -2.1530 H       
  41 H41            7.5913     4.3208    -1.8774 H       
  42 H42            6.4858     5.7158    -1.8597 H       
  43 H43            8.1216     5.8677    -1.1745 H       
@<TRIPOS>BOND
   1    1    2 2
   2    1   16 1
   3    1    6 1
   4    2    3 1
   5    2   26 1
   6    3    4 am
   7    3    8 1
   8    4    5 1
   9    4    7 2
  10    5    6 2
  11    5   27 1
  12    6   28 1
  13    8    9 1
  14    8   29 1
  15    8   30 1
  16    9   10 ar
  17    9   14 ar
  18   10   11 ar
  19   10   31 1
  20   11   12 ar
  21   11   32 1
  22   12   13 ar
  23   12   15 1
  24   13   14 ar
  25   13   33 1
  26   14   34 1
  27   16   17 1
  28   17   18 1
  29   17   35 1
  30   17   36 1
  31   18   19 ar
  32   18   23 ar
  33   19   20 ar
  34   19   37 1
  35   20   21 ar
  36   20   38 1
  37   21   22 ar
  38   21   24 1
  39   22   23 ar
  40   22   39 1
  41   23   40 1
  42   24   25 1
  43   25   41 1
  44   25   42 1
  45   25   43 1

#	End of record

