#	Name: ASD03330632
#	Creating user name:	WinNT
#	Creation time:	15. 06. 2019 20:37

#	Modifying user name:	WinNT
#	Modification time:	15. 06. 2019 20:37

#	Program:	/corina/corina34_cracker 3.40 0067  02.08.2006

@<TRIPOS>MOLECULE
ASD03330632
  68   70    0    0    0
SMALL
NO_CHARGES


@<TRIPOS>ATOM
   1 C1            -1.1841     1.5179     1.6941 C.2     
   2 N2            -1.3227     0.1712     1.7037 N.pl3   
   3 C3             0.1474     1.7859     1.7986 C.2     
   4 N4             0.8018     0.6055     1.8527 N.2     
   5 C5            -0.0735    -0.3703     1.7905 C.2     
   6 C6             0.2418    -1.8158     1.8106 C.ar    
   7 C7             0.7635     3.1238     1.8443 C.2     
   8 O8             0.0645     4.1175     1.7871 O.2     
   9 C9             2.7140     4.5764     1.9952 C.3     
  10 N10            2.1016     3.2463     1.9497 N.am    
  11 C11            2.9265     5.0891     0.5694 C.3     
  12 C12            1.5960     5.0630    -0.1856 C.3     
  13 C13            3.4578     6.5231     0.6169 C.3     
  14 C14            3.9381     4.1939    -0.1491 C.3     
  15 C15            4.0422     4.4939     2.7025 C.2     
  16 N16            4.7165     5.6213     3.0035 N.am    
  17 O17            4.5042     3.4130     3.0008 O.2     
  18 C18            6.0420     5.5391     3.6221 C.3     
  19 C19           -2.5955    -0.5530     1.6455 C.3     
  20 C20           -3.4612     0.0403     0.5298 C.3     
  21 C21           -4.2803     1.2049     1.0773 C.3     
  22 N22           -3.5382     1.9285     2.1118 N.3     
  23 C23           -2.3046     2.5178     1.5705 C.3     
  24 C24           -4.3791     2.9547     2.7424 C.3     
  25 C25            1.4405    -2.2775     1.2698 C.ar    
  26 C26            1.7292    -3.6338     1.2921 C.ar    
  27 C27            0.8243    -4.5275     1.8525 C.ar    
  28 C28           -0.3647    -4.0691     2.3883 C.ar    
  29 C29           -0.6578    -2.7206     2.3762 C.ar    
  30 N30            2.9291    -4.1017     0.7509 N.am    
  31 S31            4.3522    -3.8646     1.5639 S.o2    
  32 O32            5.3359    -4.4615     0.7300 O.2     
  33 O33            4.3716    -2.4702     1.8372 O.2     
  34 C34            4.1596    -4.8114     3.0992 C.3     
  35 H35            2.0577     5.2604     2.5332 H       
  36 H36            2.6591     2.4539     1.9953 H       
  37 H37            0.8752     5.7007     0.3263 H       
  38 H38            1.7473     5.4282    -1.2013 H       
  39 H39            1.2174     4.0414    -0.2194 H       
  40 H40            4.4413     6.5307     1.0868 H       
  41 H41            3.5365     6.9152    -0.3971 H       
  42 H42            2.7742     7.1449     1.1949 H       
  43 H43            3.5596     3.1723    -0.1829 H       
  44 H44            4.0895     4.5592    -1.1648 H       
  45 H45            4.8860     4.2125     0.3888 H       
  46 H46            4.3242     6.4873     2.8106 H       
  47 H47            6.4276     6.5446     3.7900 H       
  48 H48            5.9664     5.0151     4.5749 H       
  49 H49            6.7181     4.9962     2.9615 H       
  50 H50           -2.4061    -1.6062     1.4385 H       
  51 H51           -3.1138    -0.4558     2.5994 H       
  52 H52           -2.8198     0.3957    -0.2767 H       
  53 H53           -4.1336    -0.7269     0.1458 H       
  54 H54           -4.5184     1.8891     0.2629 H       
  55 H55           -5.2071     0.8213     1.5039 H       
  56 H56           -2.0536     3.4175     2.1322 H       
  57 H57           -2.4523     2.7716     0.5208 H       
  58 H58           -5.2472     2.4815     3.2014 H       
  59 H59           -3.8035     3.4769     3.5067 H       
  60 H60           -4.7107     3.6673     1.9872 H       
  61 H61            2.1422    -1.5813     0.8344 H       
  62 H62            1.0506    -5.5834     1.8691 H       
  63 H63           -1.0645    -4.7681     2.8219 H       
  64 H64           -1.5877    -2.3664     2.7961 H       
  65 H65            2.9287    -4.5654    -0.1010 H       
  66 H66            4.0852    -5.8732     2.8643 H       
  67 H67            5.0234    -4.6412     3.7419 H       
  68 H68            3.2546    -4.4889     3.6139 H       
@<TRIPOS>BOND
   1    1    2 1
   2    1    3 2
   3    1   23 1
   4    2   19 1
   5    2    5 1
   6    3    4 1
   7    3    7 1
   8    4    5 2
   9    5    6 1
  10    6   25 ar
  11    6   29 ar
  12    7    8 2
  13    7   10 am
  14    9   10 1
  15    9   11 1
  16    9   15 1
  17    9   35 1
  18   10   36 1
  19   11   12 1
  20   11   13 1
  21   11   14 1
  22   12   37 1
  23   12   38 1
  24   12   39 1
  25   13   40 1
  26   13   41 1
  27   13   42 1
  28   14   43 1
  29   14   44 1
  30   14   45 1
  31   15   16 am
  32   15   17 2
  33   16   18 1
  34   16   46 1
  35   18   47 1
  36   18   48 1
  37   18   49 1
  38   19   20 1
  39   19   50 1
  40   19   51 1
  41   20   21 1
  42   20   52 1
  43   20   53 1
  44   21   22 1
  45   21   54 1
  46   21   55 1
  47   22   23 1
  48   22   24 1
  49   23   56 1
  50   23   57 1
  51   24   58 1
  52   24   59 1
  53   24   60 1
  54   25   26 ar
  55   25   61 1
  56   26   27 ar
  57   26   30 1
  58   27   28 ar
  59   27   62 1
  60   28   29 ar
  61   28   63 1
  62   29   64 1
  63   30   31 am
  64   30   65 1
  65   31   32 2
  66   31   33 2
  67   31   34 1
  68   34   66 1
  69   34   67 1
  70   34   68 1

#	End of record

