#	Name: ASD01910265
#	Creating user name:	WinNT
#	Creation time:	15. 06. 2019 19:55

#	Modifying user name:	WinNT
#	Modification time:	15. 06. 2019 19:55

#	Program:	/corina/corina34_cracker 3.40 0067  02.08.2006

@<TRIPOS>MOLECULE
ASD01910265
  43   46    0    0    0
SMALL
NO_CHARGES


@<TRIPOS>ATOM
   1 C1             0.6233     0.5056     0.4139 C.2     
   2 C2             1.8008     1.4461     0.3994 C.3     
   3 C3             2.1176     1.8457    -1.0435 C.3     
   4 C4             3.3336     2.7748    -1.0620 C.3     
   5 C5             3.0128     4.0450    -0.2679 C.3     
   6 N6             2.5672     3.6610     1.0785 N.am    
   7 C7             1.4626     2.7012     1.2101 C.3     
   8 C8             3.1605     4.1794     2.1720 C.2     
   9 O9             2.7383     3.9074     3.2791 O.2     
  10 N10            0.6127    -0.7206     0.8740 N.2     
  11 C11           -0.6474    -1.1706     0.6792 C.2     
  12 N12           -1.3211    -0.2011     0.1179 N.2     
  13 O13           -0.6080     0.7680    -0.0353 O.3     
  14 C14           -1.1681    -2.5146     1.0355 C.ar    
  15 C15           -2.4974    -2.8322     0.7707 C.ar    
  16 C16           -2.9691    -4.0899     1.1085 C.ar    
  17 C17           -2.0936    -4.9880     1.7005 C.ar    
  18 C18           -0.7848    -4.6051     1.9347 C.ar    
  19 N19           -0.3614    -3.4044     1.5984 N.ar    
  20 C20            4.3237     5.0781     2.0253 C.ar    
  21 C21            4.2622     6.1671     1.1532 C.ar    
  22 C22            5.3505     7.0024     1.0200 C.ar    
  23 C23            6.5047     6.7632     1.7501 C.ar    
  24 C24            6.5713     5.6831     2.6171 C.ar    
  25 C25            5.4866     4.8451     2.7625 C.ar    
  26 F26            7.5685     7.5850     1.6159 F       
  27 H27            2.6671     0.9513     0.8385 H       
  28 H28            2.3346     0.9520    -1.6286 H       
  29 H29            1.2596     2.3619    -1.4741 H       
  30 H30            4.1856     2.2680    -0.6090 H       
  31 H31            3.5730     3.0403    -2.0918 H       
  32 H32            3.9061     4.6652    -0.1941 H       
  33 H33            2.2207     4.5999    -0.7706 H       
  34 H34            0.5441     3.1465     0.8280 H       
  35 H35            1.3331     2.4347     2.2591 H       
  36 H36           -3.1518    -2.1079     0.3086 H       
  37 H37           -3.9956    -4.3649     0.9157 H       
  38 H38           -2.4303    -5.9765     1.9763 H       
  39 H39           -0.1003    -5.3016     2.3958 H       
  40 H40            3.3638     6.3541     0.5838 H       
  41 H41            5.3042     7.8447     0.3456 H       
  42 H42            7.4728     5.5010     3.1831 H       
  43 H43            5.5394     4.0043     3.4383 H       
@<TRIPOS>BOND
   1    1   10 2
   2    1    2 1
   3    1   13 1
   4    2    3 1
   5    2    7 1
   6    2   27 1
   7    3    4 1
   8    3   28 1
   9    3   29 1
  10    4    5 1
  11    4   30 1
  12    4   31 1
  13    5    6 1
  14    5   32 1
  15    5   33 1
  16    6    7 1
  17    6    8 am
  18    7   34 1
  19    7   35 1
  20    8    9 2
  21    8   20 1
  22   10   11 1
  23   11   12 2
  24   11   14 1
  25   12   13 1
  26   14   15 ar
  27   14   19 ar
  28   15   16 ar
  29   15   36 1
  30   16   17 ar
  31   16   37 1
  32   17   18 ar
  33   17   38 1
  34   18   19 ar
  35   18   39 1
  36   20   21 ar
  37   20   25 ar
  38   21   22 ar
  39   21   40 1
  40   22   23 ar
  41   22   41 1
  42   23   24 ar
  43   23   26 1
  44   24   25 ar
  45   24   42 1
  46   25   43 1

#	End of record

