#	Name: ASD07301062
#	Creating user name:	WinNT
#	Creation time:	15. 06. 2019 21:10

#	Modifying user name:	WinNT
#	Modification time:	15. 06. 2019 21:10

#	Program:	/corina/corina34_cracker 3.40 0067  02.08.2006

@<TRIPOS>MOLECULE
ASD07301062
  35   35    0    0    0
SMALL
NO_CHARGES


@<TRIPOS>ATOM
   1 C1            -0.0100     1.5008     0.1361 C.3     
   2 C2             0.0110    -0.0060     0.1293 C.2     
   3 C3             1.2822    -0.7195     0.0025 C.2     
   4 C4             1.3025    -2.1825    -0.0040 C.2     
   5 C5             1.2967    -2.9303    -1.3123 C.3     
   6 O6            -1.0266    -0.6278     0.2291 O.2     
   7 O7             1.3241    -2.7938     1.0443 O.2     
   8 N8             2.4144    -0.0409    -0.1063 N.2     
   9 N9             3.5426    -0.6662    -0.1165 N.pl3   
  10 C10            4.7383     0.0524    -0.1248 C.ar    
  11 C11            5.9546    -0.6214    -0.1358 C.ar    
  12 C12            7.1368     0.0895    -0.1440 C.ar    
  13 C13            7.1122     1.4791    -0.1413 C.ar    
  14 C14            5.8967     2.1530    -0.1299 C.ar    
  15 C15            4.7141     1.4427    -0.1280 C.ar    
  16 N16            8.3094     2.1987    -0.1497 N.pl3   
  17 C17            9.5871     1.4934    -0.2774 C.3     
  18 C18            8.2874     3.6587    -0.0307 C.3     
  19 H19            1.0076     1.8788     0.0375 H       
  20 H20           -0.6132     1.8595    -0.6979 H       
  21 H21           -0.4396     1.8540     1.0735 H       
  22 H22            1.1871    -2.2232    -2.1345 H       
  23 H23            2.2345    -3.4747    -1.4239 H       
  24 H24            0.4644    -3.6341    -1.3249 H       
  25 H25            3.5596    -1.6361    -0.1183 H       
  26 H26            5.9738    -1.7013    -0.1375 H       
  27 H27            8.0815    -0.4338    -0.1521 H       
  28 H28            5.8780     3.2328    -0.1272 H       
  29 H29            3.7695     1.9664    -0.1240 H       
  30 H30            9.8473     1.4009    -1.3319 H       
  31 H31           10.3650     2.0539     0.2410 H       
  32 H32            9.4996     0.5004     0.1636 H       
  33 H33            7.2551     4.0083    -0.0383 H       
  34 H34            8.7643     3.9543     0.9039 H       
  35 H35            8.8266     4.0997    -0.8690 H       
@<TRIPOS>BOND
   1    1    2 1
   2    1   19 1
   3    1   20 1
   4    1   21 1
   5    2    3 1
   6    2    6 2
   7    3    4 1
   8    3    8 2
   9    4    5 1
  10    4    7 2
  11    5   22 1
  12    5   23 1
  13    5   24 1
  14    8    9 1
  15    9   10 1
  16    9   25 1
  17   10   11 ar
  18   10   15 ar
  19   11   12 ar
  20   11   26 1
  21   12   13 ar
  22   12   27 1
  23   13   14 ar
  24   13   16 1
  25   14   15 ar
  26   14   28 1
  27   15   29 1
  28   16   17 1
  29   16   18 1
  30   17   30 1
  31   17   31 1
  32   17   32 1
  33   18   33 1
  34   18   34 1
  35   18   35 1

#	End of record

