#	Name: ASD05143025
#	Creating user name:	WinNT
#	Creation time:	15. 06. 2019 20:57

#	Modifying user name:	WinNT
#	Modification time:	15. 06. 2019 20:57

#	Program:	/corina/corina34_cracker 3.40 0067  02.08.2006

@<TRIPOS>MOLECULE
ASD05143025
 148  151    0    0    0
SMALL
NO_CHARGES


@<TRIPOS>ATOM
   1 C1            -0.0342     2.1660     4.4072 C.2     
   2 C2             0.6851     1.0334     5.0933 C.3     
   3 N3             0.6485     3.0162     3.6149 N.am    
   4 O4            -1.2282     2.3095     4.5639 O.2     
   5 C5            -0.0508     4.1172     2.9478 C.3     
   6 C6            -1.1378     3.5507     2.0322 C.3     
   7 C7            -0.6822     5.0119     3.9832 C.2     
   8 C8            -0.4871     2.7437     0.9069 C.3     
   9 C9            -1.5741     2.1772    -0.0088 C.3     
  10 N10           -0.9511     1.4044    -1.0862 N.pl3   
  11 C11           -1.7350     0.7963    -2.0380 C.2     
  12 N12           -1.1503     0.0711    -3.0492 N.pl3   
  13 N13           -3.0324     0.9073    -1.9817 N.2     
  14 O14           -0.8825     4.5946     5.1042 O.2     
  15 N15           -1.0242     6.2757     3.6634 N.am    
  16 C16           -1.6380     7.1454     4.6699 C.3     
  17 C17           -0.6037     8.1558     5.1700 C.3     
  18 C18            0.7059     7.4314     5.4876 C.3     
  19 C19            1.5561     7.3618     4.2454 C.2     
  20 O20            1.0713     7.0354     3.1827 O.2     
  21 N21            2.8831     7.6737     4.3382 N.am    
  22 C22            3.6479     7.5739     3.0742 C.3     
  23 C23            3.5578     8.9131     2.3400 C.3     
  24 C24            3.8524     8.7001     0.8538 C.3     
  25 C25            4.6590     9.8848     0.3181 C.3     
  26 N26            4.2230    10.1723    -1.0632 N.am    
  27 C27            6.1261     9.5404     0.3232 C.2     
  28 N28            6.8333     9.6215     1.4677 N.am    
  29 O29            6.6704     9.1904    -0.7025 O.2     
  30 C30            3.2909    11.1523    -1.2151 C.2     
  31 O31            2.8627    11.7476    -0.2491 O.2     
  32 C32            2.7979    11.4889    -2.5989 C.3     
  33 N33            1.5445    12.2680    -2.4760 N.am    
  34 C34            3.8515    12.3225    -3.3310 C.3     
  35 C35            0.3988    11.5834    -2.7683 C.2     
  36 O36            0.4439    10.4199    -3.1076 O.2     
  37 C37           -0.9219    12.3012    -2.6605 C.3     
  38 N38           -1.9841    11.3091    -2.4005 N.am    
  39 C39           -0.8664    13.3065    -1.5085 C.3     
  40 C40           -2.8745    11.6136    -1.4166 C.2     
  41 O41           -2.7750    12.6510    -0.7963 O.2     
  42 C42           -3.9859    10.6432    -1.1099 C.3     
  43 C43            3.4100    12.5532    -4.7533 C.2     
  44 C44            2.5205    13.6157    -5.2282 C.ar    
  45 C45            2.3993    13.4293    -6.6172 C.ar    
  46 N46            3.1630    12.3325    -6.9480 N.pl3   
  47 C47            3.7620    11.8273    -5.8263 C.2     
  48 C48            1.8459    14.6674    -4.6049 C.ar    
  49 C49            1.0704    15.5113    -5.3487 C.ar    
  50 C50            0.9472    15.3313    -6.7197 C.ar    
  51 C51            1.6046    14.3009    -7.3550 C.ar    
  52 N52           -4.1969    10.6111     0.3554 N.am    
  53 C53           -3.5995     9.2475    -1.6035 C.3     
  54 C54           -4.7475     8.2983    -1.3752 C.ar    
  55 C55           -5.8116     8.2760    -2.2570 C.ar    
  56 C56           -6.8649     7.4052    -2.0475 C.ar    
  57 C57           -6.8534     6.5566    -0.9566 C.ar    
  58 C58           -5.7886     6.5782    -0.0751 C.ar    
  59 C59           -4.7336     7.4457    -0.2869 C.ar    
  60 C60           -2.8019     7.8804     4.0564 C.2     
  61 N61           -2.5648     8.7867     3.0686 N.am    
  62 O62           -3.9336     7.6672     4.4368 O.2     
  63 C63           -3.7438     9.4755     2.5066 C.3     
  64 C64           -3.8593    10.8742     3.1160 C.3     
  65 C65           -3.5754     9.5877     1.0133 C.2     
  66 C66           -4.1382    10.7556     4.6157 C.3     
  67 N67           -4.2490    12.0985     5.2007 N.3     
  68 O68           -2.9005     8.7834     0.4062 O.2     
  69 C69           -0.5300    12.5740    -0.2080 C.3     
  70 C70           -0.6096    13.5537     0.9645 C.3     
  71 N71           -0.2875    12.8523     2.2096 N.pl3   
  72 C72           -0.2947    13.5334     3.4039 C.2     
  73 N73            0.0077    12.8752     4.5725 N.pl3   
  74 N74           -0.5881    14.8031     3.4283 N.2     
  75 C75           -5.8241     9.2013    -3.4464 C.3     
  76 F76           -6.9943     8.9956    -4.1851 F       
  77 F77           -5.7782    10.5282    -3.0055 F       
  78 F78           -4.7114     8.9392    -4.2529 F       
  79 H79            1.7428     1.0629     4.8314 H       
  80 H80            0.5753     1.1343     6.1731 H       
  81 H81            0.2576     0.0837     4.7719 H       
  82 H82            1.6027     2.8990     3.4864 H       
  83 H83            0.6600     4.6929     2.3550 H       
  84 H84           -1.7977     2.9030     2.6092 H       
  85 H85           -1.7158     4.3699     1.6044 H       
  86 H86            0.1728     3.3915     0.3299 H       
  87 H87            0.0909     1.9245     1.3346 H       
  88 H88           -2.2340     1.5294     0.5683 H       
  89 H89           -2.1521     2.9964    -0.4365 H       
  90 H90            0.0145     1.3218    -1.1281 H       
  91 H91           -0.1847    -0.0115    -3.0910 H       
  92 H92           -1.7034    -0.3580    -3.7207 H       
  93 H93           -3.5855     0.4782    -2.6532 H       
  94 H94           -0.8640     6.6094     2.7668 H       
  95 H95           -1.9897     6.5414     5.5063 H       
  96 H96           -0.4262     8.9057     4.3991 H       
  97 H97           -0.9773     8.6425     6.0709 H       
  98 H98            1.2425     7.9751     6.2651 H       
  99 H99            0.4874     6.4217     5.8353 H       
 100 H100           3.2955     7.9421     5.1741 H       
 101 H101           4.6910     7.3472     3.2949 H       
 102 H102           3.2239     6.7861     2.4515 H       
 103 H103           2.5553     9.3247     2.4564 H       
 104 H104           4.2865     9.6070     2.7590 H       
 105 H105           4.4260     7.7822     0.7250 H       
 106 H106           2.9138     8.6218     0.3050 H       
 107 H107           4.4847    10.7588     0.9455 H       
 108 H108           4.5821     9.6876    -1.8228 H       
 109 H109           6.3979     9.9014     2.2880 H       
 110 H110           7.7776     9.3998     1.4710 H       
 111 H111           2.6050    10.5699    -3.1523 H       
 112 H112           1.5374    13.1999    -2.2070 H       
 113 H113           3.9700    13.2819    -2.8273 H       
 114 H114           4.8027    11.7903    -3.3275 H       
 115 H115          -1.1308    12.8237    -3.5939 H       
 116 H116          -2.0442    10.4826    -2.9046 H       
 117 H117          -0.0990    14.0528    -1.7141 H       
 118 H118          -1.8340    13.7984    -1.4086 H       
 119 H119          -4.9016    10.9679    -1.6041 H       
 120 H120           3.2643    11.9736    -7.8435 H       
 121 H121           4.4151    10.9674    -5.8060 H       
 122 H122           1.9365    14.8131    -3.5386 H       
 123 H123           0.5488    16.3246    -4.8661 H       
 124 H124           0.3303    16.0065    -7.2942 H       
 125 H125           1.5026    14.1695    -8.4221 H       
 126 H126          -4.7384    11.2710     0.8161 H       
 127 H127          -3.3690     9.2896    -2.6680 H       
 128 H128          -2.7245     8.8978    -1.0558 H       
 129 H129          -7.6967     7.3883    -2.7361 H       
 130 H130          -7.6765     5.8768    -0.7926 H       
 131 H131          -5.7798     5.9153     0.7775 H       
 132 H132          -3.9018     7.4626     0.4017 H       
 133 H133          -1.6672     8.9709     2.7506 H       
 134 H134          -4.6434     8.9032     2.7327 H       
 135 H135          -2.9261    11.4159     2.9616 H       
 136 H136          -4.6760    11.4133     2.6360 H       
 137 H137          -5.0713    10.2139     4.7700 H       
 138 H138          -3.3214    10.2165     5.0956 H       
 139 H139          -4.9568    12.6412     4.7289 H       
 140 H140          -4.4333    12.0472     6.1914 H       
 141 H141          -1.2419    11.7633    -0.0531 H       
 142 H142           0.4783    12.1649    -0.2718 H       
 143 H143           0.1022    14.3645     0.8095 H       
 144 H144          -1.6179    13.9628     1.0283 H       
 145 H145          -0.0692    11.9074     2.1915 H       
 146 H146           0.2260    11.9302     4.5543 H       
 147 H147           0.0026    13.3557     5.4151 H       
 148 H148          -0.5931    15.2836     4.2709 H       
@<TRIPOS>BOND
   1    1    2 1
   2    1    3 am
   3    1    4 2
   4    2   79 1
   5    2   80 1
   6    2   81 1
   7    3    5 1
   8    3   82 1
   9    5    6 1
  10    5    7 1
  11    5   83 1
  12    6    8 1
  13    6   84 1
  14    6   85 1
  15    7   14 2
  16    7   15 am
  17    8    9 1
  18    8   86 1
  19    8   87 1
  20    9   10 1
  21    9   88 1
  22    9   89 1
  23   10   11 1
  24   10   90 1
  25   11   12 1
  26   11   13 2
  27   12   91 1
  28   12   92 1
  29   13   93 1
  30   15   16 1
  31   15   94 1
  32   16   17 1
  33   16   60 1
  34   16   95 1
  35   17   18 1
  36   17   96 1
  37   17   97 1
  38   18   19 1
  39   18   98 1
  40   18   99 1
  41   19   20 2
  42   19   21 am
  43   21   22 1
  44   21  100 1
  45   22   23 1
  46   22  101 1
  47   22  102 1
  48   23   24 1
  49   23  103 1
  50   23  104 1
  51   24   25 1
  52   24  105 1
  53   24  106 1
  54   25   26 1
  55   25   27 1
  56   25  107 1
  57   26   30 am
  58   26  108 1
  59   27   28 am
  60   27   29 2
  61   28  109 1
  62   28  110 1
  63   30   31 2
  64   30   32 1
  65   32   33 1
  66   32   34 1
  67   32  111 1
  68   33   35 am
  69   33  112 1
  70   34   43 1
  71   34  113 1
  72   34  114 1
  73   35   36 2
  74   35   37 1
  75   37   38 1
  76   37   39 1
  77   37  115 1
  78   38   40 am
  79   38  116 1
  80   39   69 1
  81   39  117 1
  82   39  118 1
  83   40   41 2
  84   40   42 1
  85   42   52 1
  86   42   53 1
  87   42  119 1
  88   43   44 1
  89   43   47 2
  90   44   45 ar
  91   44   48 ar
  92   45   46 1
  93   45   51 ar
  94   46   47 1
  95   46  120 1
  96   47  121 1
  97   48   49 ar
  98   48  122 1
  99   49   50 ar
 100   49  123 1
 101   50   51 ar
 102   50  124 1
 103   51  125 1
 104   52   65 am
 105   52  126 1
 106   53   54 1
 107   53  127 1
 108   53  128 1
 109   54   55 ar
 110   54   59 ar
 111   55   56 ar
 112   55   75 1
 113   56   57 ar
 114   56  129 1
 115   57   58 ar
 116   57  130 1
 117   58   59 ar
 118   58  131 1
 119   59  132 1
 120   60   61 am
 121   60   62 2
 122   61   63 1
 123   61  133 1
 124   63   64 1
 125   63   65 1
 126   63  134 1
 127   64   66 1
 128   64  135 1
 129   64  136 1
 130   65   68 2
 131   66   67 1
 132   66  137 1
 133   66  138 1
 134   67  139 1
 135   67  140 1
 136   69   70 1
 137   69  141 1
 138   69  142 1
 139   70   71 1
 140   70  143 1
 141   70  144 1
 142   71   72 1
 143   71  145 1
 144   72   73 1
 145   72   74 2
 146   73  146 1
 147   73  147 1
 148   74  148 1
 149   75   76 1
 150   75   77 1
 151   75   78 1

#	End of record

