#	Name: ASD01910191
#	Creating user name:	WinNT
#	Creation time:	15. 06. 2019 19:55

#	Modifying user name:	WinNT
#	Modification time:	15. 06. 2019 19:55

#	Program:	/corina/corina34_cracker 3.40 0067  02.08.2006

@<TRIPOS>MOLECULE
ASD01910191
  33   34    0    0    0
SMALL
NO_CHARGES


@<TRIPOS>ATOM
   1 C1            -0.2188     1.3751     0.0962 C.ar    
   2 C2             0.0371     0.0377     0.3288 C.ar    
   3 C3             1.3444    -0.4330     0.3192 C.ar    
   4 C4             2.3932     0.4417     0.0756 C.ar    
   5 C5             2.1329     1.7848    -0.1577 C.ar    
   6 C6             0.8236     2.2490    -0.1467 C.ar    
   7 N7             3.1874     2.6699    -0.4032 N.am    
   8 C8             4.2613     2.2600    -1.1069 C.2     
   9 C9             5.3285     3.2220    -1.4541 C.ar    
  10 N10            1.6027    -1.7877     0.5554 N.am    
  11 C11            0.7246    -2.7231     0.1426 C.2     
  12 C12            6.4419     2.8007    -2.1827 C.ar    
  13 C13            7.4347     3.7033    -2.5043 C.ar    
  14 C14            7.3290     5.0237    -2.1061 C.ar    
  15 C15            6.2271     5.4490    -1.3829 C.ar    
  16 C16            5.2242     4.5570    -1.0598 C.ar    
  17 O17           -0.2425    -2.3994    -0.5139 O.2     
  18 O18            4.3523     1.0991    -1.4560 O.2     
  19 C19            0.9444    -4.1714     0.4968 C.3     
  20 Cl20           6.1036     7.1083    -0.8877 Cl      
  21 H21           -1.2361     1.7376     0.0998 H       
  22 H22           -0.7798    -0.6427     0.5187 H       
  23 H23            3.4102     0.0783     0.0680 H       
  24 H24            0.6202     3.2940    -0.3286 H       
  25 H25            3.1459     3.5789    -0.0671 H       
  26 H26            2.4138    -2.0537     1.0162 H       
  27 H27            6.5264     1.7699    -2.4939 H       
  28 H28            8.2965     3.3780    -3.0681 H       
  29 H29            8.1093     5.7260    -2.3599 H       
  30 H30            4.3652     4.8893    -0.4958 H       
  31 H31            1.8570    -4.2671     1.0850 H       
  32 H32            0.0974    -4.5358     1.0782 H       
  33 H33            1.0376    -4.7587    -0.4167 H       
@<TRIPOS>BOND
   1    1    2 ar
   2    1    6 ar
   3    1   21 1
   4    2    3 ar
   5    2   22 1
   6    3    4 ar
   7    3   10 1
   8    4    5 ar
   9    4   23 1
  10    5    6 ar
  11    5    7 1
  12    6   24 1
  13    7    8 am
  14    7   25 1
  15    8    9 1
  16    8   18 2
  17    9   12 ar
  18    9   16 ar
  19   10   11 am
  20   10   26 1
  21   11   17 2
  22   11   19 1
  23   12   13 ar
  24   12   27 1
  25   13   14 ar
  26   13   28 1
  27   14   15 ar
  28   14   29 1
  29   15   16 ar
  30   15   20 1
  31   16   30 1
  32   19   31 1
  33   19   32 1
  34   19   33 1

#	End of record

