#	Name: ASD05790066
#	Creating user name:	WinNT
#	Creation time:	15. 06. 2019 21:03

#	Modifying user name:	WinNT
#	Modification time:	15. 06. 2019 21:03

#	Program:	/corina/corina34_cracker 3.40 0067  02.08.2006

@<TRIPOS>MOLECULE
ASD05790066
  95  100    0    0    0
SMALL
NO_CHARGES


@<TRIPOS>ATOM
   1 C1            -0.0364     1.4598     0.0436 C.3     
   2 C2             0.0155    -0.0557     0.0425 C.2     
   3 C3             0.9231    -0.6780     1.0106 C.2     
   4 C4             1.9282     0.0168     1.5404 C.2     
   5 C5             2.2125     1.4559     1.1869 C.3     
   6 C6             1.4052     1.9647     0.0082 C.3     
   7 C7             2.8120    -0.6890     2.5509 C.3     
   8 C8             4.2945    -0.4233     2.2485 C.3     
   9 C9             4.4789     1.0823     2.1410 C.3     
  10 C10            3.6966     1.5552     0.8899 C.3     
  11 C11            5.9067     1.5252     1.7902 C.3     
  12 C12            5.7305     2.8653     1.0850 C.2     
  13 C13            4.2630     2.9480     0.6496 C.3     
  14 C14            6.7210     1.6774     3.0592 C.3     
  15 C15            8.1458     2.0527     2.8254 C.3     
  16 C16            8.3961     3.5157     2.5448 C.3     
  17 C17            8.0626     3.8900     1.1101 C.3     
  18 C18            6.6118     3.7385     0.8241 C.2     
  19 C19            9.9069     3.8168     2.7834 C.3     
  20 C20            9.8336     5.2101     3.4306 C.3     
  21 C21            8.5615     5.0147     4.3027 C.3     
  22 O22            7.6473     4.3449     3.4579 O.3     
  23 N23           10.9244     5.5261     4.3456 N.3     
  24 C24           10.6607     6.8351     4.9721 C.3     
  25 C25            9.3448     6.8380     5.7463 C.3     
  26 C26            8.1788     6.3707     4.8566 C.3     
  27 C27            1.9127     2.3314     2.4053 C.3     
  28 C28            6.0570     4.8977     0.0370 C.3     
  29 C29            9.0589     8.2558     6.2453 C.3     
  30 C30           10.5269     2.7970     3.7408 C.3     
  31 C31           12.2154     5.5285     3.6448 C.3     
  32 O32           -0.6584    -0.7177    -0.7188 O.2     
  33 C33           13.2945     6.1019     4.5655 C.3     
  34 N34           14.5820     6.1042     3.8666 N.am    
  35 O35           16.8680     6.5708     3.8448 O.3     
  36 C36           18.0131     7.0854     4.5743 C.3     
  37 C37           18.2318     6.2485     5.8363 C.3     
  38 C38           19.2585     7.0082     3.6889 C.3     
  39 C39           17.7555     8.5417     4.9664 C.3     
  40 C40           15.6847     6.5686     4.4871 C.2     
  41 O41           15.6109     6.9854     5.6261 O.2     
  42 H42           -0.5746     1.8130    -0.8360 H       
  43 H43           -0.5308     1.8131     0.9485 H       
  44 H44            0.7758    -1.7090     1.2965 H       
  45 H45            1.8758     1.6285    -0.9157 H       
  46 H46            1.4000     3.0545     0.0258 H       
  47 H47            2.5778    -0.3235     3.5508 H       
  48 H48            2.6226    -1.7615     2.5072 H       
  49 H49            4.9128    -0.8148     3.0563 H       
  50 H50            4.5708    -0.8978     1.3069 H       
  51 H51            4.1175     1.5819     3.0398 H       
  52 H52            3.9435     0.9169     0.0415 H       
  53 H53            6.3716     0.8036     1.1184 H       
  54 H54            4.1962     3.2063    -0.4073 H       
  55 H55            3.7302     3.6823     1.2536 H       
  56 H56            6.2572     2.4444     3.6794 H       
  57 H57            6.6955     0.7332     3.6033 H       
  58 H58            8.7226     1.7702     3.7061 H       
  59 H59            8.5173     1.4742     1.9796 H       
  60 H60            8.3526     4.9263     0.9366 H       
  61 H61            8.6269     3.2468     0.4348 H       
  62 H62           10.4539     3.8496     1.8412 H       
  63 H63            9.6914     5.9893     2.6818 H       
  64 H64            8.8105     4.3604     5.1382 H       
  65 H65           11.4757     7.0721     5.6560 H       
  66 H66           10.6174     7.5984     4.1953 H       
  67 H67            9.4319     6.1691     6.6025 H       
  68 H68            8.0277     7.0769     4.0401 H       
  69 H69            7.2685     6.2866     5.4502 H       
  70 H70            2.4590     1.9517     3.2688 H       
  71 H71            2.2225     3.3563     2.2013 H       
  72 H72            0.8431     2.3098     2.6139 H       
  73 H73            6.8522     5.6166    -0.1604 H       
  74 H74            5.6525     4.5349    -0.9079 H       
  75 H75            5.2651     5.3801     0.6099 H       
  76 H76            8.9843     8.9325     5.3940 H       
  77 H77            8.1200     8.2637     6.7990 H       
  78 H78            9.8686     8.5814     6.8983 H       
  79 H79           10.4332     1.7971     3.3171 H       
  80 H80           11.5810     3.0316     3.8888 H       
  81 H81           10.0081     2.8357     4.6987 H       
  82 H82           12.4797     4.5082     3.3667 H       
  83 H83           12.1404     6.1419     2.7469 H       
  84 H84           13.0302     7.1222     4.8436 H       
  85 H85           13.3695     5.4885     5.4634 H       
  86 H86           14.6409     5.7715     2.9574 H       
  87 H87           18.4153     5.2110     5.5570 H       
  88 H88           19.0915     6.6348     6.3840 H       
  89 H89           17.3446     6.3035     6.4671 H       
  90 H90           19.1026     7.6044     2.7898 H       
  91 H91           20.1181     7.3946     4.2366 H       
  92 H92           19.4420     5.9707     3.4096 H       
  93 H93           16.8682     8.5967     5.5971 H       
  94 H94           18.6151     8.9280     5.5140 H       
  95 H95           17.5996     9.1379     4.0673 H       
@<TRIPOS>BOND
   1    1    2 1
   2    1    6 1
   3    1   42 1
   4    1   43 1
   5    2    3 1
   6    2   32 2
   7    3    4 2
   8    3   44 1
   9    4    5 1
  10    4    7 1
  11    5    6 1
  12    5   27 1
  13    5   10 1
  14    6   45 1
  15    6   46 1
  16    7    8 1
  17    7   47 1
  18    7   48 1
  19    8    9 1
  20    8   49 1
  21    8   50 1
  22    9   10 1
  23    9   11 1
  24    9   51 1
  25   10   13 1
  26   10   52 1
  27   11   12 1
  28   11   14 1
  29   11   53 1
  30   12   13 1
  31   12   18 2
  32   13   54 1
  33   13   55 1
  34   14   15 1
  35   14   56 1
  36   14   57 1
  37   15   16 1
  38   15   58 1
  39   15   59 1
  40   16   17 1
  41   16   22 1
  42   16   19 1
  43   17   18 1
  44   17   60 1
  45   17   61 1
  46   18   28 1
  47   19   30 1
  48   19   20 1
  49   19   62 1
  50   20   21 1
  51   20   23 1
  52   20   63 1
  53   21   22 1
  54   21   26 1
  55   21   64 1
  56   23   24 1
  57   23   31 1
  58   24   25 1
  59   24   65 1
  60   24   66 1
  61   25   26 1
  62   25   29 1
  63   25   67 1
  64   26   68 1
  65   26   69 1
  66   27   70 1
  67   27   71 1
  68   27   72 1
  69   28   73 1
  70   28   74 1
  71   28   75 1
  72   29   76 1
  73   29   77 1
  74   29   78 1
  75   30   79 1
  76   30   80 1
  77   30   81 1
  78   31   33 1
  79   31   82 1
  80   31   83 1
  81   33   34 1
  82   33   84 1
  83   33   85 1
  84   34   40 am
  85   34   86 1
  86   35   36 1
  87   35   40 1
  88   36   37 1
  89   36   38 1
  90   36   39 1
  91   37   87 1
  92   37   88 1
  93   37   89 1
  94   38   90 1
  95   38   91 1
  96   38   92 1
  97   39   93 1
  98   39   94 1
  99   39   95 1
 100   40   41 2

#	End of record

