#	Name: ASD01881709
#	Creating user name:	WinNT
#	Creation time:	15. 06. 2019 19:43

#	Modifying user name:	WinNT
#	Modification time:	15. 06. 2019 19:43

#	Program:	/corina/corina34_cracker 3.40 0067  02.08.2006

@<TRIPOS>MOLECULE
ASD01881709
  62   66    0    0    0
SMALL
NO_CHARGES


@<TRIPOS>ATOM
   1 C1            -0.0161     1.3337     0.0094 C.2     
   2 N2             0.0021    -0.0041     0.0020 N.am    
   3 C3             1.2613    -0.4841    -0.0126 C.2     
   4 C4             2.1640     0.7337    -0.0147 C.3     
   5 N5             1.2200     1.8645     0.0004 N.am    
   6 O6            -1.0354     1.9955     0.0180 O.2     
   7 O7             1.6013    -1.6477    -0.0215 O.2     
   8 C8             1.5609     3.2893     0.0041 C.3     
   9 C9             1.6916     3.7708     1.4261 C.ar    
  10 C10            2.9179     3.7119     2.0635 C.ar    
  11 C11            3.0436     4.1515     3.3656 C.ar    
  12 C12            1.9317     4.6556     4.0386 C.ar    
  13 C13            0.6985     4.7125     3.3911 C.ar    
  14 C14            0.5860     4.2753     2.0870 C.ar    
  15 C15            2.1296     6.5463     9.4228 C.2     
  16 N16            0.8532     6.9185     9.6195 N.am    
  17 C17            0.0906     6.6569     8.3935 C.3     
  18 C18            1.0684     6.0704     7.4058 C.ar    
  19 C19            0.9454     5.6335     6.1100 C.ar    
  20 C20            2.0602     5.1290     5.4378 C.ar    
  21 C21            3.2953     5.0703     6.0844 C.ar    
  22 C22            3.4183     5.5084     7.3833 C.ar    
  23 C23            2.3036     6.0140     8.0586 C.ar    
  24 O24            3.0156     6.6401    10.2499 O.2     
  25 C25            0.3121     7.4904    10.8550 C.3     
  26 C26            0.4361     9.0146    10.8085 C.3     
  27 C27           -0.1289     9.6119    12.0988 C.3     
  28 C28            1.9096     9.4024    10.6695 C.3     
  29 C29           -0.3483     9.5538     9.6106 C.3     
  30 O30           -0.0131    11.0355    12.0553 O.3     
  31 C31           -1.1986    -0.8435     0.0097 C.3     
  32 C32           -1.4008    -1.7981    -1.1687 C.3     
  33 C33           -1.0068    -2.3490     0.2032 C.3     
  34 H34            2.7924     0.7467     0.8759 H       
  35 H35            2.7753     0.7564    -0.9169 H       
  36 H36            2.5060     3.4381    -0.5182 H       
  37 H37            0.7749     3.8522    -0.4994 H       
  38 H38            3.7786     3.3209     1.5412 H       
  39 H39            4.0014     4.1047     3.8624 H       
  40 H40           -0.1663     5.1021     3.9076 H       
  41 H41           -0.3679     4.3233     1.5828 H       
  42 H42           -0.7104     5.9457     8.5952 H       
  43 H43           -0.3229     7.5872     8.0040 H       
  44 H44           -0.0116     5.6802     5.6117 H       
  45 H45            4.1573     4.6796     5.5640 H       
  46 H46            4.3757     5.4612     7.8808 H       
  47 H47           -0.7376     7.2141    10.9540 H       
  48 H48            0.8710     7.1062    11.7083 H       
  49 H49           -1.1787     9.3356    12.1978 H       
  50 H50            0.4299     9.2277    12.9521 H       
  51 H51            2.3122     8.9769     9.7503 H       
  52 H52            1.9980    10.4883    10.6364 H       
  53 H53            2.4685     9.0183    11.5229 H       
  54 H54           -1.3980     9.2775     9.7096 H       
  55 H55           -0.2599    10.6397     9.5775 H       
  56 H56            0.0543     9.1283     8.6914 H       
  57 H57           -0.3526    11.4820    12.8431 H       
  58 H58           -2.0873    -0.3887     0.4472 H       
  59 H59           -2.4226    -1.9716    -1.5063 H       
  60 H60           -0.6405    -1.8015    -1.9498 H       
  61 H61            0.0127    -2.7150     0.3247 H       
  62 H62           -1.7694    -2.8850     0.7682 H       
@<TRIPOS>BOND
   1    1    2 am
   2    1    5 am
   3    1    6 2
   4    2    3 am
   5    2   31 1
   6    3    4 1
   7    3    7 2
   8    4    5 1
   9    4   34 1
  10    4   35 1
  11    5    8 1
  12    8    9 1
  13    8   36 1
  14    8   37 1
  15    9   10 ar
  16    9   14 ar
  17   10   11 ar
  18   10   38 1
  19   11   12 ar
  20   11   39 1
  21   12   13 ar
  22   12   20 1
  23   13   14 ar
  24   13   40 1
  25   14   41 1
  26   15   16 am
  27   15   23 1
  28   15   24 2
  29   16   17 1
  30   16   25 1
  31   17   18 1
  32   17   42 1
  33   17   43 1
  34   18   19 ar
  35   18   23 ar
  36   19   20 ar
  37   19   44 1
  38   20   21 ar
  39   21   22 ar
  40   21   45 1
  41   22   23 ar
  42   22   46 1
  43   25   26 1
  44   25   47 1
  45   25   48 1
  46   26   27 1
  47   26   28 1
  48   26   29 1
  49   27   30 1
  50   27   49 1
  51   27   50 1
  52   28   51 1
  53   28   52 1
  54   28   53 1
  55   29   54 1
  56   29   55 1
  57   29   56 1
  58   30   57 1
  59   31   32 1
  60   31   33 1
  61   31   58 1
  62   32   33 1
  63   32   59 1
  64   32   60 1
  65   33   61 1
  66   33   62 1

#	End of record

