#	Name: ASD01410376
#	Creating user name:	WinNT
#	Creation time:	15. 06. 2019 19:17

#	Modifying user name:	WinNT
#	Modification time:	15. 06. 2019 19:17

#	Program:	/corina/corina34_cracker 3.40 0067  02.08.2006

@<TRIPOS>MOLECULE
ASD01410376
  72   76    0    0    0
SMALL
NO_CHARGES


@<TRIPOS>ATOM
   1 N1            -0.0166     1.3704     0.0096 N.pl3   
   2 C2             0.0021    -0.0041     0.0020 C.2     
   3 C3             1.2892    -0.4360    -0.0126 C.2     
   4 C4             2.1286     0.7034    -0.0145 C.ar    
   5 C5             3.5212     0.8708    -0.0275 C.ar    
   6 C6             4.0569     2.1217    -0.0262 C.ar    
   7 C7             3.2244     3.2512    -0.0117 C.ar    
   8 C8             1.8380     3.1024     0.0014 C.ar    
   9 C9             1.2841     1.8324    -0.0004 C.ar    
  10 C10            3.8178     4.6003    -0.0099 C.2     
  11 O11            3.0991     5.5801     0.0026 O.2     
  12 O12            5.1574     4.7472    -0.0221 O.3     
  13 C13           -1.1920    -0.8752     0.0092 C.ar    
  14 C14           -2.2526    -0.6020     0.8751 C.ar    
  15 C15           -3.3645    -1.4164     0.8784 C.ar    
  16 C16           -3.4305    -2.5080     0.0222 C.ar    
  17 C17           -2.3776    -2.7832    -0.8406 C.ar    
  18 C18           -1.2647    -1.9702    -0.8540 C.ar    
  19 C19            1.7431    -1.8730    -0.0246 C.3     
  20 C20            2.5726    -2.1353    -1.2833 C.3     
  21 C21            3.0335    -3.5942    -1.2955 C.3     
  22 C22            3.8867    -3.8699    -0.0558 C.3     
  23 C23            3.0573    -3.6076     1.2028 C.3     
  24 C24            2.5964    -2.1487     1.2151 C.3     
  25 C25           -1.2190     2.2072     0.0201 C.3     
  26 C26           -1.6243     2.4864     1.4444 C.2     
  27 N27           -2.7107     3.2419     1.7002 N.am    
  28 C28           -3.1047     3.5134     3.0848 C.3     
  29 C29           -3.4976     3.7918     0.5935 C.3     
  30 O30           -0.9729     2.0312     2.3606 O.2     
  31 O31           -4.5278    -3.3089     0.0291 O.3     
  32 C32           -5.8176    -5.1828    -0.7283 C.ar    
  33 C33           -6.9156    -4.8474    -1.4982 C.ar    
  34 C34           -8.0950    -5.5562    -1.3660 C.ar    
  35 C35           -8.1763    -6.6008    -0.4642 C.ar    
  36 C36           -7.0780    -6.9368     0.3050 C.ar    
  37 C37           -5.8990    -6.2271     0.1739 C.ar    
  38 C38           -4.5300    -4.4141    -0.8768 C.3     
  39 H39            4.1686     0.0064    -0.0383 H       
  40 H40            5.1297     2.2459    -0.0359 H       
  41 H41            1.1990     3.9730     0.0125 H       
  42 H42            5.4999     5.6515    -0.0204 H       
  43 H43           -2.2017     0.2463     1.5416 H       
  44 H44           -4.1853    -1.2057     1.5479 H       
  45 H45           -2.4327    -3.6330    -1.5049 H       
  46 H46           -0.4482    -2.1822    -1.5284 H       
  47 H47            0.8727    -2.5291    -0.0198 H       
  48 H48            1.9647    -1.9389    -2.1664 H       
  49 H49            3.4430    -1.4792    -1.2880 H       
  50 H50            2.1630    -4.2502    -1.2907 H       
  51 H51            3.6244    -3.7810    -2.1922 H       
  52 H52            4.2150    -4.9092    -0.0645 H       
  53 H53            4.7571    -3.2138    -0.0606 H       
  54 H54            2.1868    -4.2637     1.2076 H       
  55 H55            3.6652    -3.8040     2.0860 H       
  56 H56            3.4668    -1.4926     1.2103 H       
  57 H57            2.0055    -1.9618     2.1117 H       
  58 H58           -1.0114     3.1480    -0.4897 H       
  59 H59           -2.0281     1.6870    -0.4926 H       
  60 H60           -2.6154     4.4242     3.4299 H       
  61 H61           -4.1861     3.6398     3.1368 H       
  62 H62           -2.8058     2.6781     3.7181 H       
  63 H63           -4.2798     3.0846     0.3173 H       
  64 H64           -3.9516     4.7331     0.9030 H       
  65 H65           -2.8469     3.9666    -0.2633 H       
  66 H66           -6.8522    -4.0313    -2.2027 H       
  67 H67           -8.9531    -5.2937    -1.9670 H       
  68 H68           -9.0979    -7.1541    -0.3604 H       
  69 H69           -7.1417    -7.7524     1.0101 H       
  70 H70           -5.0412    -6.4891     0.7754 H       
  71 H71           -4.4424    -4.0461    -1.8991 H       
  72 H72           -3.6879    -5.0690    -0.6531 H       
@<TRIPOS>BOND
   1    1    2 1
   2    1    9 1
   3    1   25 1
   4    2    3 2
   5    2   13 1
   6    3    4 1
   7    3   19 1
   8    4    5 ar
   9    4    9 ar
  10    5    6 ar
  11    5   39 1
  12    6    7 ar
  13    6   40 1
  14    7    8 ar
  15    7   10 1
  16    8    9 ar
  17    8   41 1
  18   10   11 2
  19   10   12 1
  20   12   42 1
  21   13   14 ar
  22   13   18 ar
  23   14   15 ar
  24   14   43 1
  25   15   16 ar
  26   15   44 1
  27   16   17 ar
  28   16   31 1
  29   17   18 ar
  30   17   45 1
  31   18   46 1
  32   19   20 1
  33   19   24 1
  34   19   47 1
  35   20   21 1
  36   20   48 1
  37   20   49 1
  38   21   22 1
  39   21   50 1
  40   21   51 1
  41   22   23 1
  42   22   52 1
  43   22   53 1
  44   23   24 1
  45   23   54 1
  46   23   55 1
  47   24   56 1
  48   24   57 1
  49   25   26 1
  50   25   58 1
  51   25   59 1
  52   26   27 am
  53   26   30 2
  54   27   28 1
  55   27   29 1
  56   28   60 1
  57   28   61 1
  58   28   62 1
  59   29   63 1
  60   29   64 1
  61   29   65 1
  62   31   38 1
  63   32   33 ar
  64   32   37 ar
  65   32   38 1
  66   33   34 ar
  67   33   66 1
  68   34   35 ar
  69   34   67 1
  70   35   36 ar
  71   35   68 1
  72   36   37 ar
  73   36   69 1
  74   37   70 1
  75   38   71 1
  76   38   72 1

#	End of record

