#	Name: ASD01911368
#	Creating user name:	WinNT
#	Creation time:	15. 06. 2019 19:57

#	Modifying user name:	WinNT
#	Modification time:	15. 06. 2019 19:57

#	Program:	/corina/corina34_cracker 3.40 0067  02.08.2006

@<TRIPOS>MOLECULE
ASD01911368
  48   51    0    0    0
SMALL
NO_CHARGES


@<TRIPOS>ATOM
   1 C1            -0.0173     1.4278     0.0099 C.ar    
   2 C2             0.0021    -0.0041     0.0020 C.1     
   3 C3             0.0180    -1.1779    -0.0044 C.1     
   4 C4             0.0374    -2.6098    -0.0123 C.ar    
   5 N5            -1.1126    -3.2811    -0.0049 N.ar    
   6 C6            -1.1402    -4.5954    -0.0108 C.ar    
   7 C7             0.0510    -5.3261    -0.0416 C.ar    
   8 C8             1.2772    -4.6524    -0.0428 C.ar    
   9 C9             1.2645    -3.2820    -0.0334 C.ar    
  10 C10           -2.4537    -5.3334     0.0374 C.3     
  11 C11           -2.3546    -6.6319    -0.7588 C.3     
  12 N12           -1.1812    -7.4046    -0.3572 N.am    
  13 C13           -0.0076    -6.7990    -0.0930 C.2     
  14 O14            0.9941    -7.4601     0.1013 O.2     
  15 C15           -1.2830    -8.8613    -0.2401 C.3     
  16 C16           -0.2923    -9.5381    -1.2036 C.3     
  17 C17            0.6710   -10.3704    -0.3323 C.3     
  18 C18           -0.1280   -10.6387     0.9672 C.3     
  19 C19           -0.8872    -9.3060     1.1830 C.3     
  20 C20            1.1810     2.1455     0.0023 C.ar    
  21 C21            1.1534     3.5295     0.0095 C.ar    
  22 C22           -0.0620     4.2008     0.0247 C.ar    
  23 C23           -1.2499     3.4923     0.0322 C.ar    
  24 C24           -1.2359     2.1133     0.0194 C.ar    
  25 O25            2.3169     4.2319     0.0022 O.3     
  26 C26            2.2144     5.6572     0.0103 C.3     
  27 H27            2.2092    -5.1980    -0.0549 H       
  28 H28            2.1911    -2.7273    -0.0338 H       
  29 H29           -2.7016    -5.5628     1.0738 H       
  30 H30           -3.2365    -4.7065    -0.3894 H       
  31 H31           -3.2513    -7.2270    -0.5860 H       
  32 H32           -2.2816    -6.3961    -1.8205 H       
  33 H33           -2.3001    -9.1834    -0.4634 H       
  34 H34           -0.8285   -10.1893    -1.8939 H       
  35 H35            0.2642    -8.7826    -1.7583 H       
  36 H36            0.9194   -11.3088    -0.8280 H       
  37 H37            1.5752    -9.8022    -0.1138 H       
  38 H38           -0.8271   -11.4633     0.8276 H       
  39 H39            0.5456   -10.8389     1.8004 H       
  40 H40           -0.2346    -8.5659     1.6463 H       
  41 H41           -1.7758    -9.4677     1.7932 H       
  42 H42            2.1258     1.6224    -0.0088 H       
  43 H43           -0.0798     5.2806     0.0310 H       
  44 H44           -2.1916     4.0208     0.0444 H       
  45 H45           -2.1653     1.5633     0.0253 H       
  46 H46            1.6842     5.9782     0.9069 H       
  47 H47            3.2133     6.0933     0.0032 H       
  48 H48            1.6676     5.9871    -0.8730 H       
@<TRIPOS>BOND
   1    1    2 1
   2    1   20 ar
   3    1   24 ar
   4    2    3 3
   5    3    4 1
   6    4    5 ar
   7    4    9 ar
   8    5    6 ar
   9    6    7 ar
  10    6   10 1
  11    7    8 ar
  12    7   13 1
  13    8    9 ar
  14    8   27 1
  15    9   28 1
  16   10   11 1
  17   10   29 1
  18   10   30 1
  19   11   12 1
  20   11   31 1
  21   11   32 1
  22   12   13 am
  23   12   15 1
  24   13   14 2
  25   15   16 1
  26   15   19 1
  27   15   33 1
  28   16   17 1
  29   16   34 1
  30   16   35 1
  31   17   18 1
  32   17   36 1
  33   17   37 1
  34   18   19 1
  35   18   38 1
  36   18   39 1
  37   19   40 1
  38   19   41 1
  39   20   21 ar
  40   20   42 1
  41   21   22 ar
  42   21   25 1
  43   22   23 ar
  44   22   43 1
  45   23   24 ar
  46   23   44 1
  47   24   45 1
  48   25   26 1
  49   26   46 1
  50   26   47 1
  51   26   48 1

#	End of record

