#	Name: ASD01230093
#	Creating user name:	WinNT
#	Creation time:	15. 06. 2019 19:11

#	Modifying user name:	WinNT
#	Modification time:	15. 06. 2019 19:11

#	Program:	/corina/corina34_cracker 3.40 0067  02.08.2006

@<TRIPOS>MOLECULE
ASD01230093
  51   54    0    0    0
SMALL
NO_CHARGES


@<TRIPOS>ATOM
   1 C1            -0.0166     1.3746     0.0096 C.2     
   2 C2             0.0021    -0.0041     0.0020 C.2     
   3 C3            -1.3406    -0.4406     0.0125 C.2     
   4 N4            -2.1091     0.6141     0.0255 N.2     
   5 N5            -1.3051     1.7596     0.0298 N.pl3   
   6 C6            -1.7856     3.1435     0.0438 C.3     
   7 C7             1.1858     2.2831     0.0030 C.3     
   8 C8             1.6064     2.5828     1.4432 C.3     
   9 C9             2.8088     3.4912     1.4366 C.ar    
  10 C10            2.6387     4.8630     1.4456 C.ar    
  11 C11            3.7416     5.6963     1.4395 C.ar    
  12 C12            5.0147     5.1578     1.4248 C.ar    
  13 C13            5.1848     3.7860     1.4163 C.ar    
  14 C14            4.0819     2.9527     1.4272 C.ar    
  15 C15            1.2024    -0.8636    -0.0145 C.2     
  16 O16            2.4802    -0.4528    -0.0245 O.3     
  17 N17            3.2224    -1.4118    -0.0367 N.2     
  18 C18            2.5310    -2.5226    -0.0360 C.2     
  19 N19            1.2248    -2.1843    -0.0164 N.2     
  20 C20            3.0820    -3.9009    -0.0486 C.ar    
  21 C21            4.4602    -4.1027    -0.0623 C.ar    
  22 C22            2.2224    -4.9976    -0.0411 C.ar    
  23 C23            2.7400    -6.2768    -0.0529 C.ar    
  24 C24            4.1095    -6.4715    -0.0723 C.ar    
  25 C25            4.9672    -5.3866    -0.0741 C.ar    
  26 S26            6.7102    -5.6436    -0.0994 S.o2    
  27 N27            7.1742    -5.7012    -1.6880 N.am    
  28 O28            7.2967    -4.4706     0.4477 O.2     
  29 O29            6.9319    -6.9432     0.4308 O.2     
  30 F30           -1.9312     3.5733     1.3671 F       
  31 C31            6.2171     6.0663     1.4177 C.3     
  32 F32            6.6017     6.3412     2.7344 F       
  33 F33            7.2714     5.4391     0.7452 F       
  34 F34            5.8944     7.2619     0.7668 F       
  35 H35           -1.6735    -1.4680     0.0098 H       
  36 H36           -1.0669     3.7828    -0.4689 H       
  37 H37           -2.7484     3.1989    -0.4643 H       
  38 H38            2.0072     1.7948    -0.5213 H       
  39 H39            0.9343     3.2149    -0.5035 H       
  40 H40            0.7850     3.0711     1.9675 H       
  41 H41            1.8579     1.6509     1.9496 H       
  42 H42            1.6441     5.2838     1.4570 H       
  43 H43            3.6087     6.7681     1.4458 H       
  44 H44            6.1794     3.3653     1.4045 H       
  45 H45            4.2148     1.8809     1.4206 H       
  46 H46            5.1309    -3.2561    -0.0641 H       
  47 H47            1.1531    -4.8467    -0.0256 H       
  48 H48            2.0746    -7.1275    -0.0467 H       
  49 H49            4.5103    -7.4743    -0.0811 H       
  50 H50            6.5130    -5.5988    -2.3904 H       
  51 H51            8.1071    -5.8373    -1.9162 H       
@<TRIPOS>BOND
   1    1    2 2
   2    1    7 1
   3    1    5 1
   4    2    3 1
   5    2   15 1
   6    3    4 2
   7    3   35 1
   8    4    5 1
   9    5    6 1
  10    6   30 1
  11    6   36 1
  12    6   37 1
  13    7    8 1
  14    7   38 1
  15    7   39 1
  16    8    9 1
  17    8   40 1
  18    8   41 1
  19    9   10 ar
  20    9   14 ar
  21   10   11 ar
  22   10   42 1
  23   11   12 ar
  24   11   43 1
  25   12   31 1
  26   12   13 ar
  27   13   14 ar
  28   13   44 1
  29   14   45 1
  30   15   16 1
  31   15   19 2
  32   16   17 1
  33   17   18 2
  34   18   19 1
  35   18   20 1
  36   20   21 ar
  37   20   22 ar
  38   21   25 ar
  39   21   46 1
  40   22   23 ar
  41   22   47 1
  42   23   24 ar
  43   23   48 1
  44   24   25 ar
  45   24   49 1
  46   25   26 1
  47   26   27 am
  48   26   28 2
  49   26   29 2
  50   27   50 1
  51   27   51 1
  52   31   32 1
  53   31   33 1
  54   31   34 1

#	End of record

