#	Name: ASD00191028
#	Creating user name:	WinNT
#	Creation time:	15. 06. 2019 18:33

#	Modifying user name:	WinNT
#	Modification time:	15. 06. 2019 18:33

#	Program:	/corina/corina34_cracker 3.40 0067  02.08.2006

@<TRIPOS>MOLECULE
ASD00191028
  47   51    0    0    0
SMALL
NO_CHARGES


@<TRIPOS>ATOM
   1 C1             0.1056     1.4390    -1.0809 C.ar    
   2 C2             0.1434     0.0889    -1.2639 C.ar    
   3 C3             1.3221    -0.6264    -1.0803 C.ar    
   4 C4             2.4721     0.0083    -0.7111 C.ar    
   5 C5             2.4667     1.3931    -0.5153 C.ar    
   6 C6             1.2692     2.1255    -0.7015 C.ar    
   7 C7             3.6669     2.1179    -0.1211 C.ar    
   8 C8             3.5695     3.5021     0.0523 C.ar    
   9 C9             2.3228     4.1327    -0.1607 C.ar    
  10 N10            1.2558     3.4537    -0.5152 N.ar    
  11 N11            4.9657     1.7836     0.1462 N.pl3   
  12 C12            5.6217     2.9318     0.4688 C.2     
  13 N13            4.7994     3.9402     0.4129 N.2     
  14 C14            7.0806     3.0227     0.8354 C.3     
  15 C15            7.2503     2.7322     2.3280 C.3     
  16 C16            8.7315     2.8243     2.7003 C.3     
  17 C17            9.5263     1.8001     1.8877 C.3     
  18 C18            9.3565     2.0906     0.3952 C.3     
  19 C19            7.8754     1.9985     0.0229 C.3     
  20 N20            2.2232     5.5040     0.0104 N.pl3   
  21 C21            0.8725     7.4221    -0.5832 C.ar    
  22 N22           -0.3006     8.0160    -0.6708 N.ar    
  23 C23           -1.4127     7.4179    -0.2900 C.ar    
  24 C24           -1.3897     6.1333     0.2202 C.ar    
  25 C25           -0.1782     5.4706     0.3305 C.ar    
  26 C26            0.9771     6.1310    -0.0807 C.ar    
  27 H27           -0.8169     1.9800    -1.2319 H       
  28 H28           -0.7557    -0.4335    -1.5556 H       
  29 H29            1.3270    -1.6958    -1.2314 H       
  30 H30            3.3821    -0.5560    -0.5704 H       
  31 H31            5.3486     0.8930     0.1126 H       
  32 H32            7.4486     4.0249     0.6162 H       
  33 H33            6.6841     3.4618     2.9069 H       
  34 H34            6.8823     1.7299     2.5472 H       
  35 H35            9.0995     3.8266     2.4810 H       
  36 H36            8.8524     2.6174     3.7636 H       
  37 H37           10.5815     1.8658     2.1530 H       
  38 H38            9.1582     0.7979     2.1070 H       
  39 H39            9.7246     3.0929     0.1760 H       
  40 H40            9.9227     1.3610    -0.1837 H       
  41 H41            7.5073     0.9962     0.2421 H       
  42 H42            7.7544     2.2054    -1.0404 H       
  43 H43            3.0180     6.0290     0.1933 H       
  44 H44            1.7609     7.9424    -0.9093 H       
  45 H45           -2.3545     7.9391    -0.3777 H       
  46 H46           -2.3057     5.6521     0.5297 H       
  47 H47           -0.1306     4.4667     0.7259 H       
@<TRIPOS>BOND
   1    1    2 ar
   2    1    6 ar
   3    1   27 1
   4    2    3 ar
   5    2   28 1
   6    3    4 ar
   7    3   29 1
   8    4    5 ar
   9    4   30 1
  10    5    6 ar
  11    5    7 ar
  12    6   10 ar
  13    7    8 ar
  14    7   11 1
  15    8    9 ar
  16    8   13 1
  17    9   10 ar
  18    9   20 1
  19   11   12 1
  20   11   31 1
  21   12   13 2
  22   12   14 1
  23   14   15 1
  24   14   19 1
  25   14   32 1
  26   15   16 1
  27   15   33 1
  28   15   34 1
  29   16   17 1
  30   16   35 1
  31   16   36 1
  32   17   18 1
  33   17   37 1
  34   17   38 1
  35   18   19 1
  36   18   39 1
  37   18   40 1
  38   19   41 1
  39   19   42 1
  40   20   26 1
  41   20   43 1
  42   21   22 ar
  43   21   26 ar
  44   21   44 1
  45   22   23 ar
  46   23   24 ar
  47   23   45 1
  48   24   25 ar
  49   24   46 1
  50   25   26 ar
  51   25   47 1

#	End of record

