#	Name: ASD08150993
#	Creating user name:	WinNT
#	Creation time:	15. 06. 2019 21:16

#	Modifying user name:	WinNT
#	Modification time:	15. 06. 2019 21:16

#	Program:	/corina/corina34_cracker 3.40 0067  02.08.2006

@<TRIPOS>MOLECULE
ASD08150993
  19   20    0    0    0
SMALL
NO_CHARGES


@<TRIPOS>ATOM
   1 S1            -0.0218     1.7538     0.0117 S.3     
   2 C2             0.0021    -0.0041     0.0020 C.2     
   3 N3             1.2066    -0.4358    -0.0118 N.2     
   4 C4             2.2054     0.4689    -0.0165 C.ar    
   5 C5             1.7403     1.7903    -0.0049 C.ar    
   6 C6             3.5959     0.2472    -0.0303 C.ar    
   7 C7             4.4746     1.3258    -0.0321 C.ar    
   8 C8             3.9802     2.6402    -0.0199 C.ar    
   9 C9             2.6377     2.8616    -0.0073 C.ar    
  10 C10            5.9238     1.0891    -0.0465 C.2     
  11 O11            6.6917     2.0280    -0.0482 O.2     
  12 C12           -1.2243    -0.8798     0.0095 C.3     
  13 Br13           4.2699    -1.5195    -0.0456 Br      
  14 H14            4.6653     3.4751    -0.0212 H       
  15 H15            2.2623     3.8743     0.0013 H       
  16 H16            6.3059     0.0790    -0.0556 H       
  17 H17           -2.1171    -0.2547     0.0213 H       
  18 H18           -1.2300    -1.5047    -0.8836 H       
  19 H19           -1.2128    -1.5136     0.8962 H       
@<TRIPOS>BOND
   1    1    2 1
   2    1    5 1
   3    2    3 2
   4    2   12 1
   5    3    4 1
   6    4    5 ar
   7    4    6 ar
   8    5    9 ar
   9    6    7 ar
  10    6   13 1
  11    7    8 ar
  12    7   10 1
  13    8    9 ar
  14    8   14 1
  15    9   15 1
  16   10   11 2
  17   10   16 1
  18   12   17 1
  19   12   18 1
  20   12   19 1

#	End of record

