#	Name: ASD06600061
#	Creating user name:	WinNT
#	Creation time:	15. 06. 2019 21:07

#	Modifying user name:	WinNT
#	Modification time:	15. 06. 2019 21:07

#	Program:	/corina/corina34_cracker 3.40 0067  02.08.2006

@<TRIPOS>MOLECULE
ASD06600061
 281  281    0    0    0
SMALL
NO_CHARGES


@<TRIPOS>ATOM
   1 C1            -1.4411     3.7575     0.2626 C.2     
   2 O2            -1.1586     2.6105    -0.0119 O.2     
   3 N3             0.9343     4.1199     0.6244 N.3     
   4 C4            -0.3521     4.7908     0.3946 C.3     
   5 C5            -0.2741     5.6167    -0.8910 C.3     
   6 C6             0.7442     6.7444    -0.7118 C.3     
   7 C7             0.8222     7.5702    -1.9974 C.3     
   8 N8             1.7973     8.6501    -1.8257 N.pl3   
   9 C9             2.0390     9.5278    -2.8553 C.2     
  10 N10            1.5021     9.3243    -4.0238 N.2     
  11 N11            2.8516    10.6262    -2.6503 N.am    
  12 C12           -5.0829     3.7874    -0.0527 C.2     
  13 O13           -5.1173     4.9924    -0.1857 O.2     
  14 N14           -2.7294     4.1092     0.4440 N.am    
  15 C15           -3.7885     3.1060     0.3097 C.3     
  16 C16           -3.9576     2.3622     1.6360 C.3     
  17 C17           -2.6854     1.5693     1.9419 C.3     
  18 C18           -2.8520     0.8367     3.2483 C.2     
  19 O19           -3.8864     0.9388     3.8731 O.2     
  20 N20           -1.8514     0.0681     3.7222 N.am    
  21 C21           -8.6197     2.8667    -0.1350 C.2     
  22 O22           -8.4148     1.8092     0.4224 O.2     
  23 N23           -6.2023     3.0577    -0.2290 N.am    
  24 C24           -7.4606     3.7201    -0.5813 C.3     
  25 C25           -7.5262     3.9172    -2.0971 C.3     
  26 C26          -12.2185     2.7600    -0.7673 C.2     
  27 O27          -12.1453     3.5928    -1.6460 O.2     
  28 N28           -9.8839     3.2785    -0.3554 N.am    
  29 C29          -11.0107     2.4489     0.0785 C.3     
  30 C30          -11.3261     2.7441     1.5462 C.3     
  31 C31          -10.1457     2.3119     2.4184 C.3     
  32 C32          -10.4564     2.6027     3.8641 C.2     
  33 O33          -11.5174     3.1062     4.1670 O.2     
  34 N34           -9.5552     2.3034     4.8205 N.am    
  35 C35          -15.8060     2.0776    -0.6013 C.2     
  36 O36          -15.7252     1.6285     0.5224 O.2     
  37 N37          -13.3801     2.1128    -0.5473 N.am    
  38 C38          -14.5543     2.4152    -1.3695 C.3     
  39 C39          -14.5048     1.5855    -2.6541 C.3     
  40 C40          -13.3007     2.0168    -3.4938 C.3     
  41 C41          -13.2513     1.1871    -4.7783 C.3     
  42 N42          -12.0983     1.6001    -5.5823 N.pl3   
  43 C43          -11.8478     0.9903    -6.7888 C.2     
  44 N44          -12.6361     0.0448    -7.2173 N.2     
  45 N45          -10.7658     1.3779    -7.5433 N.pl3   
  46 C46          -19.3527     1.6606    -1.3822 C.2     
  47 O47          -19.2572     2.0059    -2.5409 O.2     
  48 N48          -17.0152     2.2746    -1.1629 N.am    
  49 C49          -18.2320     1.9463    -0.4161 C.3     
  50 C50          -18.6169     3.1278     0.4765 C.3     
  51 C51          -17.5059     3.3784     1.4981 C.3     
  52 C52          -17.8908     4.5599     2.3907 C.3     
  53 N53          -16.8270     4.7998     3.3690 N.pl3   
  54 C54          -16.9512     5.8187     4.2837 C.2     
  55 N55          -18.0155     6.5712     4.2805 N.2     
  56 N56          -15.9528     6.0439     5.2017 N.pl3   
  57 C57          -22.2535     2.0876    -2.2197 C.2     
  58 O58          -21.7191     3.1315    -1.9103 O.2     
  59 N59          -20.4611     1.0214    -0.9587 N.am    
  60 C60          -21.6685     0.7767    -1.7611 C.3     
  61 C61          -22.6781     0.0393    -0.8564 C.3     
  62 C62          -22.2005     0.4109     0.5723 C.3     
  63 C63          -20.6611     0.4463     0.3839 C.3     
  64 C64          -25.4135     3.2026    -3.6806 C.2     
  65 O65          -25.9375     2.1221    -3.5109 O.2     
  66 N66          -23.3705     2.1000    -2.9737 N.am    
  67 C67          -23.9392     3.3744    -3.4196 C.3     
  68 C68          -23.2422     3.8216    -4.7060 C.3     
  69 C69          -21.7698     4.1161    -4.4124 C.3     
  70 C70          -21.0833     4.5566    -5.6796 C.2     
  71 O71          -21.7099     4.6280    -6.7155 O.2     
  72 N72          -19.7729     4.8713    -5.6617 N.am    
  73 C73          -28.0409     5.1187    -5.3504 C.2     
  74 O74          -27.2484     5.9178    -5.8023 O.2     
  75 N75          -26.1496     4.2497    -4.1026 N.am    
  76 C76          -27.5828     4.0828    -4.3564 C.3     
  77 C77          -28.3559     4.2549    -3.0474 C.3     
  78 C78          -27.9818     3.1283    -2.0822 C.3     
  79 C79          -28.7550     3.3004    -0.7732 C.3     
  80 N80          -28.3968     2.2216     0.1510 N.pl3   
  81 C81          -28.9698     2.1674     1.3995 C.2     
  82 N82          -29.8318     3.0759     1.7610 N.2     
  83 N83          -28.6337     1.1551     2.2669 N.pl3   
  84 C84          -31.2510     6.4183    -6.5207 C.2     
  85 O85          -31.8687     5.8174    -5.6673 O.2     
  86 N86          -29.3315     5.1572    -5.7371 N.am    
  87 C87          -29.7769     6.1642    -6.7034 C.3     
  88 C88          -29.5189     5.6574    -8.1238 C.3     
  89 C89          -28.0121     5.5181    -8.3498 C.3     
  90 C90          -27.7581     5.0189    -9.7488 C.2     
  91 O91          -28.6904     4.7964   -10.4919 O.2     
  92 N92          -26.4948     4.8196   -10.1742 N.am    
  93 C93          -33.9012     8.0728    -8.4187 C.2     
  94 O94          -33.1911     8.2174    -9.3912 O.2     
  95 N95          -31.8829     7.3134    -7.3056 N.am    
  96 C96          -33.3160     7.5604    -7.1279 C.3     
  97 C97          -33.5213     8.6018    -6.0260 C.3     
  98 C98          -33.0400     8.0322    -4.6900 C.3     
  99 C99          -33.2453     9.0736    -3.5880 C.3     
 100 C100         -32.7641     8.5041    -2.2520 C.3     
 101 N101         -32.9612     9.5039    -1.1940 N.3     
 102 C102         -37.0186     9.6783    -9.4517 C.2     
 103 O103         -37.3879     9.8250    -8.3058 O.2     
 104 N104         -35.2136     8.3703    -8.4923 N.am    
 105 C105         -35.7825     8.8685    -9.7471 C.3     
 106 C106         -36.1503     7.6857   -10.6453 C.3     
 107 C107         -40.1032    10.1069   -10.0594 C.2     
 108 O108         -39.9608     8.9157   -10.2032 O.2     
 109 N109         -37.7136    10.2397   -10.4608 N.am    
 110 C110         -38.9152    11.0270   -10.1736 C.3     
 111 C111         -39.1521    12.0276   -11.3065 C.3     
 112 C112         -40.4071    12.8499   -11.0066 C.3     
 113 C113         -37.9460    12.9618   -11.4224 C.3     
 114 O114         -41.3196    10.6106    -9.7980 O.3     
 115 C115           3.3077    10.9055    -1.4132 C.2     
 116 O116           3.0732    10.1487    -0.4954 O.2     
 117 C117          12.5484    21.6008    10.8916 C.3     
 118 C118          11.7348    20.3287    10.6453 C.3     
 119 C119          11.3428    20.2519     9.1684 C.3     
 120 C120          10.5291    18.9798     8.9222 C.3     
 121 C121          10.1372    18.9030     7.4452 C.3     
 122 C122           9.3235    17.6309     7.1990 C.3     
 123 C123           8.9316    17.5541     5.7220 C.3     
 124 C124           8.1179    16.2820     5.4758 C.3     
 125 C125           7.7260    16.2052     3.9988 C.3     
 126 C126           6.9123    14.9331     3.7526 C.3     
 127 C127           6.5204    14.8563     2.2757 C.3     
 128 C128           5.7067    13.5842     2.0294 C.3     
 129 C129           5.3147    13.5074     0.5525 C.3     
 130 C130           4.5011    12.2353     0.3062 C.3     
 131 C131           4.1091    12.1585    -1.1707 C.3     
 132 H132           0.9298     3.6197     1.5007 H       
 133 H133           1.1633     3.5047    -0.1419 H       
 134 H134          -0.5746     5.4478     1.2355 H       
 135 H135           0.0353     4.9756    -1.7165 H       
 136 H136          -1.2534     6.0427    -1.1092 H       
 137 H137           0.4348     7.3855     0.1137 H       
 138 H138           1.7235     6.3184    -0.4936 H       
 139 H139           1.1316     6.9291    -2.8228 H       
 140 H140          -0.1570     7.9963    -2.2155 H       
 141 H141           2.2724     8.7455    -0.9854 H       
 142 H142           1.6129     9.9807    -4.7294 H       
 143 H143           3.0940    11.1963    -3.3968 H       
 144 H144          -2.9554     5.0267     0.6635 H       
 145 H145          -3.5199     2.3966    -0.4730 H       
 146 H146          -4.1387     3.0810     2.4352 H       
 147 H147          -4.8034     1.6785     1.5639 H       
 148 H148          -2.5044     0.8505     1.1427 H       
 149 H149          -1.8396     2.2531     2.0140 H       
 150 H150          -1.0241    -0.0135     3.2224 H       
 151 H151          -1.9586    -0.4034     4.5631 H       
 152 H152          -6.1747     2.0940    -0.1226 H       
 153 H153          -7.5116     4.6899    -0.0863 H       
 154 H154          -7.4751     2.9474    -2.5921 H       
 155 H155          -8.4624     4.4101    -2.3592 H       
 156 H156          -6.6878     4.5345    -2.4199 H       
 157 H157         -10.0477     4.1243    -0.8012 H       
 158 H158         -10.7507     1.3962    -0.0326 H       
 159 H159         -11.4992     3.8128     1.6727 H       
 160 H160         -12.2186     2.1937     1.8439 H       
 161 H161          -9.9726     1.2432     2.2919 H       
 162 H162          -9.2532     2.8623     2.1208 H       
 163 H163          -8.7066     1.9007     4.5783 H       
 164 H164          -9.7551     2.4906     5.7510 H       
 165 H165         -13.4386     1.4467     0.1554 H       
 166 H166         -14.5578     3.4756    -1.6219 H       
 167 H167         -14.4118     0.5294    -2.4011 H       
 168 H168         -15.4204     1.7433    -3.2240 H       
 169 H169         -13.3938     3.0730    -3.7468 H       
 170 H170         -12.3851     1.8590    -2.9238 H       
 171 H171         -13.1582     0.1310    -4.5253 H       
 172 H172         -14.1669     1.3449    -5.3482 H       
 173 H173         -11.5117     2.3037    -5.2634 H       
 174 H174         -12.4593    -0.3854    -8.0685 H       
 175 H175         -10.1792     2.0815    -7.2244 H       
 176 H176         -10.5891     0.9477    -8.3945 H       
 177 H177         -17.0798     2.6338    -2.0617 H       
 178 H178         -18.0525     1.0670     0.2025 H       
 179 H179         -18.7532     4.0179    -0.1377 H       
 180 H180         -19.5464     2.9010     0.9988 H       
 181 H181         -17.3696     2.4883     2.1123 H       
 182 H182         -16.5765     3.6053     0.9759 H       
 183 H183         -18.0271     5.4500     1.7765 H       
 184 H184         -18.8202     4.3331     2.9130 H       
 185 H185         -16.0350     4.2399     3.3713 H       
 186 H186         -18.1031     7.2901     4.9258 H       
 187 H187         -15.1608     5.4839     5.2040 H       
 188 H188         -16.0405     6.7627     5.8470 H       
 189 H189         -21.4210     0.1591    -2.6244 H       
 190 H190         -23.6905     0.4035    -1.0315 H       
 191 H191         -22.6220    -1.0378    -1.0138 H       
 192 H192         -22.5835     1.3867     0.8709 H       
 193 H193         -22.4868    -0.3562     1.2918 H       
 194 H194         -20.2476    -0.5612     0.4305 H       
 195 H195         -20.2012     1.0814     1.1411 H       
 196 H196         -23.7980     1.2651    -3.2211 H       
 197 H197         -23.7926     4.1281    -2.6460 H       
 198 H198         -23.3127     3.0297    -5.4517 H       
 199 H199         -23.7241     4.7224    -5.0861 H       
 200 H200         -21.6993     4.9081    -3.6668 H       
 201 H201         -21.2879     3.2153    -4.0324 H       
 202 H202         -19.2717     4.8142    -4.8331 H       
 203 H203         -19.3310     5.1548    -6.4773 H       
 204 H204         -25.7305     5.1139    -4.2384 H       
 205 H205         -27.7669     3.0867    -4.7588 H       
 206 H206         -28.1029     5.2159    -2.5996 H       
 207 H207         -29.4263     4.2191    -3.2502 H       
 208 H208         -28.2349     2.1672    -2.5300 H       
 209 H209         -26.9115     3.1640    -1.8794 H       
 210 H210         -28.5020     4.2614    -0.3254 H       
 211 H211         -29.8254     3.2646    -0.9760 H       
 212 H212         -27.7553     1.5455    -0.1180 H       
 213 H213         -30.2361     3.0377     2.6419 H       
 214 H214         -27.9922     0.4790     1.9979 H       
 215 H215         -29.0380     1.1169     3.1478 H       
 216 H216         -29.9653     4.5181    -5.3757 H       
 217 H217         -29.2258     7.0908    -6.5426 H       
 218 H218         -29.9973     4.6869    -8.2557 H       
 219 H219         -29.9302     6.3660    -8.8427 H       
 220 H220         -27.5337     6.4886    -8.2179 H       
 221 H221         -27.6008     4.8095    -7.6309 H       
 222 H222         -25.7492     4.9976    -9.5799 H       
 223 H223         -26.3313     4.4983   -11.0747 H       
 224 H224         -31.3889     7.7940    -7.9881 H       
 225 H225         -33.8127     6.6316    -6.8472 H       
 226 H226         -32.9517     9.5000    -6.2643 H       
 227 H227         -34.5799     8.8512    -5.9544 H       
 228 H228         -33.6096     7.1340    -4.4517 H       
 229 H229         -31.9814     7.7828    -4.7615 H       
 230 H230         -32.6757     9.9719    -3.8264 H       
 231 H231         -34.3040     9.3230    -3.5165 H       
 232 H232         -33.3337     7.6058    -2.0137 H       
 233 H233         -31.7054     8.2547    -2.3236 H       
 234 H234         -32.6508     9.1515    -0.3010 H       
 235 H235         -32.4954    10.3692    -1.4229 H       
 236 H236         -35.7815     8.2547    -7.7145 H       
 237 H237         -35.0497     9.4959   -10.2544 H       
 238 H238         -36.5736     8.0564   -11.5789 H       
 239 H239         -35.2563     7.1000   -10.8590 H       
 240 H240         -36.8831     7.0583   -10.1379 H       
 241 H241         -37.4182    10.1224   -11.3772 H       
 242 H242         -38.7812    11.5654    -9.2354 H       
 243 H243         -39.2862    11.4892   -12.2447 H       
 244 H244         -40.2730    13.3883   -10.0684 H       
 245 H245         -40.5759    13.5627   -11.8137 H       
 246 H246         -41.2663    12.1843   -10.9240 H       
 247 H247         -37.8119    13.5002   -10.4842 H       
 248 H248         -37.0519    12.3760   -11.6361 H       
 249 H249         -38.1148    13.6747   -12.2295 H       
 250 H250         -42.0510     9.9812    -9.7341 H       
 251 H251          12.8276    21.6555    11.9438 H       
 252 H252          13.4486    21.5809    10.2773 H       
 253 H253          11.9486    22.4723    10.6290 H       
 254 H254          12.3345    19.4573    10.9079 H       
 255 H255          10.8345    20.3486    11.2596 H       
 256 H256          10.7430    21.1234     8.9059 H       
 257 H257          12.2430    20.2320     8.5541 H       
 258 H258          11.1289    18.1084     9.1847 H       
 259 H259           9.6289    18.9997     9.5364 H       
 260 H260           9.5374    19.7745     7.1827 H       
 261 H261          11.0374    18.8831     6.8310 H       
 262 H262           9.9233    16.7595     7.4615 H       
 263 H263           8.4233    17.6508     7.8132 H       
 264 H264           8.3318    18.4255     5.4595 H       
 265 H265           9.8318    17.5342     5.1078 H       
 266 H266           8.7177    15.4105     5.7383 H       
 267 H267           7.2177    16.3019     6.0900 H       
 268 H268           7.1262    17.0766     3.7363 H       
 269 H269           8.6262    16.1853     3.3846 H       
 270 H270           7.5121    14.0616     4.0151 H       
 271 H271           6.0121    14.9530     4.3669 H       
 272 H272           5.9206    15.7277     2.0131 H       
 273 H273           7.4206    14.8364     1.6614 H       
 274 H274           6.3065    12.7127     2.2920 H       
 275 H275           4.8065    13.6041     2.6437 H       
 276 H276           4.7150    14.3788     0.2899 H       
 277 H277           6.2150    13.4875    -0.0618 H       
 278 H278           5.1009    11.3638     0.5688 H       
 279 H279           3.6009    12.2552     0.9205 H       
 280 H280           5.0094    12.1386    -1.7850 H       
 281 H281           3.5093    13.0299    -1.4332 H       
@<TRIPOS>BOND
   1    1    2 2
   2    1    4 1
   3    1   14 am
   4    3    4 1
   5    3  132 1
   6    3  133 1
   7    4    5 1
   8    4  134 1
   9    5    6 1
  10    5  135 1
  11    5  136 1
  12    6    7 1
  13    6  137 1
  14    6  138 1
  15    7    8 1
  16    7  139 1
  17    7  140 1
  18    8    9 1
  19    8  141 1
  20    9   10 2
  21    9   11 1
  22   10  142 1
  23   11  115 am
  24   11  143 1
  25   12   13 2
  26   12   15 1
  27   12   23 am
  28   14   15 1
  29   14  144 1
  30   15   16 1
  31   15  145 1
  32   16   17 1
  33   16  146 1
  34   16  147 1
  35   17   18 1
  36   17  148 1
  37   17  149 1
  38   18   19 2
  39   18   20 am
  40   20  150 1
  41   20  151 1
  42   21   22 2
  43   21   24 1
  44   21   28 am
  45   23   24 1
  46   23  152 1
  47   24   25 1
  48   24  153 1
  49   25  154 1
  50   25  155 1
  51   25  156 1
  52   26   27 2
  53   26   29 1
  54   26   37 am
  55   28   29 1
  56   28  157 1
  57   29   30 1
  58   29  158 1
  59   30   31 1
  60   30  159 1
  61   30  160 1
  62   31   32 1
  63   31  161 1
  64   31  162 1
  65   32   33 2
  66   32   34 am
  67   34  163 1
  68   34  164 1
  69   35   36 2
  70   35   38 1
  71   35   48 am
  72   37   38 1
  73   37  165 1
  74   38   39 1
  75   38  166 1
  76   39   40 1
  77   39  167 1
  78   39  168 1
  79   40   41 1
  80   40  169 1
  81   40  170 1
  82   41   42 1
  83   41  171 1
  84   41  172 1
  85   42   43 1
  86   42  173 1
  87   43   44 2
  88   43   45 1
  89   44  174 1
  90   45  175 1
  91   45  176 1
  92   46   47 2
  93   46   49 1
  94   46   59 am
  95   48   49 1
  96   48  177 1
  97   49   50 1
  98   49  178 1
  99   50   51 1
 100   50  179 1
 101   50  180 1
 102   51   52 1
 103   51  181 1
 104   51  182 1
 105   52   53 1
 106   52  183 1
 107   52  184 1
 108   53   54 1
 109   53  185 1
 110   54   55 2
 111   54   56 1
 112   55  186 1
 113   56  187 1
 114   56  188 1
 115   57   58 2
 116   57   66 am
 117   57   60 1
 118   59   60 1
 119   59   63 1
 120   60   61 1
 121   60  189 1
 122   61   62 1
 123   61  190 1
 124   61  191 1
 125   62   63 1
 126   62  192 1
 127   62  193 1
 128   63  194 1
 129   63  195 1
 130   64   65 2
 131   64   67 1
 132   64   75 am
 133   66   67 1
 134   66  196 1
 135   67   68 1
 136   67  197 1
 137   68   69 1
 138   68  198 1
 139   68  199 1
 140   69   70 1
 141   69  200 1
 142   69  201 1
 143   70   71 2
 144   70   72 am
 145   72  202 1
 146   72  203 1
 147   73   74 2
 148   73   76 1
 149   73   86 am
 150   75   76 1
 151   75  204 1
 152   76   77 1
 153   76  205 1
 154   77   78 1
 155   77  206 1
 156   77  207 1
 157   78   79 1
 158   78  208 1
 159   78  209 1
 160   79   80 1
 161   79  210 1
 162   79  211 1
 163   80   81 1
 164   80  212 1
 165   81   82 2
 166   81   83 1
 167   82  213 1
 168   83  214 1
 169   83  215 1
 170   84   85 2
 171   84   87 1
 172   84   95 am
 173   86   87 1
 174   86  216 1
 175   87   88 1
 176   87  217 1
 177   88   89 1
 178   88  218 1
 179   88  219 1
 180   89   90 1
 181   89  220 1
 182   89  221 1
 183   90   91 2
 184   90   92 am
 185   92  222 1
 186   92  223 1
 187   93   94 2
 188   93   96 1
 189   93  104 am
 190   95   96 1
 191   95  224 1
 192   96   97 1
 193   96  225 1
 194   97   98 1
 195   97  226 1
 196   97  227 1
 197   98   99 1
 198   98  228 1
 199   98  229 1
 200   99  100 1
 201   99  230 1
 202   99  231 1
 203  100  101 1
 204  100  232 1
 205  100  233 1
 206  101  234 1
 207  101  235 1
 208  102  103 2
 209  102  105 1
 210  102  109 am
 211  104  105 1
 212  104  236 1
 213  105  106 1
 214  105  237 1
 215  106  238 1
 216  106  239 1
 217  106  240 1
 218  107  108 2
 219  107  110 1
 220  107  114 1
 221  109  110 1
 222  109  241 1
 223  110  111 1
 224  110  242 1
 225  111  112 1
 226  111  113 1
 227  111  243 1
 228  112  244 1
 229  112  245 1
 230  112  246 1
 231  113  247 1
 232  113  248 1
 233  113  249 1
 234  114  250 1
 235  115  116 2
 236  115  131 1
 237  117  118 1
 238  117  251 1
 239  117  252 1
 240  117  253 1
 241  118  119 1
 242  118  254 1
 243  118  255 1
 244  119  120 1
 245  119  256 1
 246  119  257 1
 247  120  121 1
 248  120  258 1
 249  120  259 1
 250  121  122 1
 251  121  260 1
 252  121  261 1
 253  122  123 1
 254  122  262 1
 255  122  263 1
 256  123  124 1
 257  123  264 1
 258  123  265 1
 259  124  125 1
 260  124  266 1
 261  124  267 1
 262  125  126 1
 263  125  268 1
 264  125  269 1
 265  126  127 1
 266  126  270 1
 267  126  271 1
 268  127  128 1
 269  127  272 1
 270  127  273 1
 271  128  129 1
 272  128  274 1
 273  128  275 1
 274  129  130 1
 275  129  276 1
 276  129  277 1
 277  130  131 1
 278  130  278 1
 279  130  279 1
 280  131  280 1
 281  131  281 1

#	End of record

