#	Name: ASD01815870
#	Creating user name:	WinNT
#	Creation time:	15. 06. 2019 19:34

#	Modifying user name:	WinNT
#	Modification time:	15. 06. 2019 19:34

#	Program:	/corina/corina34_cracker 3.40 0067  02.08.2006

@<TRIPOS>MOLECULE
ASD01815870
  54   59    0    0    0
SMALL
NO_CHARGES


@<TRIPOS>ATOM
   1 C1            -0.0167     1.3813     0.0096 C.ar    
   2 C2             0.0021    -0.0041     0.0020 C.ar    
   3 C3             1.1984    -0.6909    -0.0126 C.ar    
   4 C4             2.4015     0.0059    -0.0203 C.ar    
   5 C5             2.3790     1.4106    -0.0130 C.ar    
   6 C6             1.1663     2.0916     0.0022 C.ar    
   7 N7             3.6053    -0.6772    -0.0345 N.pl3   
   8 C8             4.7970    -0.0586    -0.0425 C.2     
   9 C9             4.9000     1.3103    -0.0370 C.2     
  10 C10            3.6670     2.1302    -0.0215 C.2     
  11 C11            5.9971     2.2730    -0.0430 C.2     
  12 N12            5.4245     3.4961    -0.0323 N.am    
  13 N13            4.0323     3.3799    -0.0194 N.2     
  14 C14            6.1259     4.7074    -0.0334 C.ar    
  15 O15            7.1914     2.0229    -0.0546 O.2     
  16 C16            3.5779    -2.1419    -0.0406 C.3     
  17 C17            3.5553    -2.6380    -1.4634 C.ar    
  18 C18            4.7440    -2.8872    -2.1253 C.ar    
  19 C19            4.7292    -3.3416    -3.4284 C.ar    
  20 C20            3.5137    -3.5493    -4.0773 C.ar    
  21 C21            2.3192    -3.2966    -3.4058 C.ar    
  22 C22            2.3457    -2.8478    -2.1008 C.ar    
  23 C23            3.4914    -4.0373    -5.4785 C.ar    
  24 C24            2.2759    -4.2450    -6.1273 C.ar    
  25 C25            2.2611    -4.6990    -7.4306 C.ar    
  26 C26            3.4498    -4.9483    -8.0924 C.ar    
  27 C27            4.6593    -4.7442    -7.4530 C.ar    
  28 C28            4.6860    -4.2841    -6.1520 C.ar    
  29 C29            5.4345     5.9113    -0.0217 C.ar    
  30 C30            7.5152     4.7071    -0.0406 C.ar    
  31 C31            8.2055     5.9031    -0.0419 C.ar    
  32 C32            7.5159     7.1016    -0.0355 C.ar    
  33 C33            6.1310     7.1066    -0.0230 C.ar    
  34 F34            5.4600     8.2792    -0.0167 F       
  35 H35           -0.9602     1.9068     0.0169 H       
  36 H36           -0.9289    -0.5516     0.0079 H       
  37 H37            1.2004    -1.7709    -0.0177 H       
  38 H38            1.1506     3.1715     0.0081 H       
  39 H39            5.6983    -0.6536    -0.0531 H       
  40 H40            4.4657    -2.5240     0.4633 H       
  41 H41            2.6861    -2.4908     0.4801 H       
  42 H42            5.6856    -2.7255    -1.6215 H       
  43 H43            5.6579    -3.5355    -3.9444 H       
  44 H44            1.3743    -3.4559    -3.9040 H       
  45 H45            1.4205    -2.6517    -1.5794 H       
  46 H46            1.3472    -4.0514    -5.6112 H       
  47 H47            1.3195    -4.8603    -7.9345 H       
  48 H48            3.4336    -5.3038    -9.1121 H       
  49 H49            5.5845    -4.9408    -7.9743 H       
  50 H50            5.6308    -4.1248    -5.6537 H       
  51 H51            4.3546     5.9147    -0.0120 H       
  52 H52            8.0552     3.7717    -0.0449 H       
  53 H53            9.2854     5.9023    -0.0475 H       
  54 H54            8.0584     8.0355    -0.0361 H       
@<TRIPOS>BOND
   1    1    2 ar
   2    1    6 ar
   3    1   35 1
   4    2    3 ar
   5    2   36 1
   6    3    4 ar
   7    3   37 1
   8    4    5 ar
   9    4    7 1
  10    5    6 ar
  11    5   10 1
  12    6   38 1
  13    7    8 1
  14    7   16 1
  15    8    9 2
  16    8   39 1
  17    9   10 1
  18    9   11 1
  19   10   13 2
  20   11   12 am
  21   11   15 2
  22   12   13 1
  23   12   14 1
  24   14   29 ar
  25   14   30 ar
  26   16   17 1
  27   16   40 1
  28   16   41 1
  29   17   18 ar
  30   17   22 ar
  31   18   19 ar
  32   18   42 1
  33   19   20 ar
  34   19   43 1
  35   20   21 ar
  36   20   23 1
  37   21   22 ar
  38   21   44 1
  39   22   45 1
  40   23   24 ar
  41   23   28 ar
  42   24   25 ar
  43   24   46 1
  44   25   26 ar
  45   25   47 1
  46   26   27 ar
  47   26   48 1
  48   27   28 ar
  49   27   49 1
  50   28   50 1
  51   29   33 ar
  52   29   51 1
  53   30   31 ar
  54   30   52 1
  55   31   32 ar
  56   31   53 1
  57   32   33 ar
  58   32   54 1
  59   33   34 1

#	End of record

