#	Name: ASD08150007
#	Creating user name:	WinNT
#	Creation time:	15. 06. 2019 21:15

#	Modifying user name:	WinNT
#	Modification time:	15. 06. 2019 21:15

#	Program:	/corina/corina34_cracker 3.40 0067  02.08.2006

@<TRIPOS>MOLECULE
ASD08150007
  45   49    0    0    0
SMALL
NO_CHARGES


@<TRIPOS>ATOM
   1 N1            -0.0157     1.2952    -0.0517 N.2     
   2 C2             0.0018    -0.0026    -0.0878 C.2     
   3 N3             1.1483    -0.7345    -0.1047 N.am    
   4 C4             2.3558    -0.1235    -0.0841 C.2     
   5 C5             2.3701     1.3460    -0.0436 C.ar    
   6 C6             3.5601     2.0708    -0.0195 C.ar    
   7 C7             3.5159     3.4471     0.0187 C.ar    
   8 C8             2.2979     4.1146     0.0336 C.ar    
   9 C9             1.1111     3.4174     0.0102 C.ar    
  10 C10            1.1296     2.0215    -0.0285 C.ar    
  11 O11            3.3898    -0.7657    -0.0981 O.2     
  12 C12           -1.3148    -0.7353    -0.1116 C.3     
  13 S13           -2.6721     0.4618    -0.0818 S.3     
  14 N14           -5.9169     1.0956    -0.0727 N.2     
  15 C15           -7.2142     0.9913    -0.0789 C.2     
  16 N16           -7.5755    -0.3226    -0.1158 N.pl3   
  17 C17           -6.4224    -1.0658    -0.1332 C.ar    
  18 N18           -6.1435    -2.3649    -0.1684 N.ar    
  19 C19           -4.8953    -2.7837    -0.1770 C.ar    
  20 N20           -3.8690    -1.9536    -0.1522 N.ar    
  21 C21           -4.0495    -0.6364    -0.1160 C.ar    
  22 C22           -5.3651    -0.1409    -0.1051 C.ar    
  23 C23            4.8858     1.3542    -0.0344 C.3     
  24 C24            1.0786    -2.1336    -0.1434 C.ar    
  25 C25            1.0406    -2.8627     1.0404 C.ar    
  26 C26            0.9719    -4.2432     0.9976 C.ar    
  27 C27            0.9410    -4.8975    -0.2204 C.ar    
  28 C28            0.9787    -4.1746    -1.3983 C.ar    
  29 C29            1.0417    -2.7947    -1.3631 C.ar    
  30 F30            1.0712    -2.2234     2.2302 F       
  31 H31            4.4362     4.0120     0.0375 H       
  32 H32            2.2817     5.1940     0.0642 H       
  33 H33            0.1702     3.9474     0.0225 H       
  34 H34           -1.3800    -1.3360    -1.0188 H       
  35 H35           -1.3847    -1.3855     0.7604 H       
  36 H36           -7.9029     1.8230    -0.0580 H       
  37 H37           -8.4816    -0.6687    -0.1277 H       
  38 H38           -4.7038    -3.8461    -0.2055 H       
  39 H39            5.1540     1.1077    -1.0617 H       
  40 H40            5.6520     1.9985     0.3966 H       
  41 H41            4.8101     0.4379     0.5511 H       
  42 H42            0.9426    -4.8108     1.9160 H       
  43 H43            0.8877    -5.9757    -0.2516 H       
  44 H44            0.9545    -4.6890    -2.3475 H       
  45 H45            1.0666    -2.2312    -2.2841 H       
@<TRIPOS>BOND
   1    1    2 2
   2    1   10 1
   3    2    3 1
   4    2   12 1
   5    3    4 am
   6    3   24 1
   7    4    5 1
   8    4   11 2
   9    5    6 ar
  10    5   10 ar
  11    6    7 ar
  12    6   23 1
  13    7    8 ar
  14    7   31 1
  15    8    9 ar
  16    8   32 1
  17    9   10 ar
  18    9   33 1
  19   12   13 1
  20   12   34 1
  21   12   35 1
  22   13   21 1
  23   14   15 2
  24   14   22 1
  25   15   16 1
  26   15   36 1
  27   16   17 1
  28   16   37 1
  29   17   18 ar
  30   17   22 ar
  31   18   19 ar
  32   19   20 ar
  33   19   38 1
  34   20   21 ar
  35   21   22 ar
  36   23   39 1
  37   23   40 1
  38   23   41 1
  39   24   25 ar
  40   24   29 ar
  41   25   26 ar
  42   25   30 1
  43   26   27 ar
  44   26   42 1
  45   27   28 ar
  46   27   43 1
  47   28   29 ar
  48   28   44 1
  49   29   45 1

#	End of record

