#	Name: ASD03330820
#	Creating user name:	WinNT
#	Creation time:	15. 06. 2019 20:38

#	Modifying user name:	WinNT
#	Modification time:	15. 06. 2019 20:38

#	Program:	/corina/corina34_cracker 3.40 0067  02.08.2006

@<TRIPOS>MOLECULE
ASD03330820
  63   65    0    0    0
SMALL
NO_CHARGES


@<TRIPOS>ATOM
   1 C1            -0.2640     1.1417     0.9534 C.2     
   2 N2            -0.2886    -0.1946     1.1690 N.pl3   
   3 C3             1.0418     1.5292     0.9790 C.2     
   4 N4             1.7939     0.4274     1.1913 N.2     
   5 C5             1.0029    -0.6140     1.3008 C.2     
   6 C6             1.4388    -2.0093     1.5296 C.ar    
   7 C7             1.5439     2.9038     0.8062 C.2     
   8 O8             0.7630     3.8175     0.6202 O.2     
   9 N9             2.8683     3.1486     0.8542 N.am    
  10 C10           -1.4968    -1.0196     1.2559 C.3     
  11 C11           -2.4266    -0.6745     0.0885 C.3     
  12 C12           -3.3321     0.4897     0.4779 C.3     
  13 N13           -2.6374     1.4196     1.3709 N.3     
  14 C14           -1.4663     2.0175     0.7128 C.3     
  15 C15            0.6072    -2.9001     2.2084 C.ar    
  16 C16            1.0180    -4.2007     2.4189 C.ar    
  17 C17            2.2520    -4.6228     1.9591 C.ar    
  18 C18            3.0838    -3.7434     1.2842 C.ar    
  19 C19            2.6804    -2.4405     1.0622 C.ar    
  20 C20            3.3674     4.5152     0.6824 C.3     
  21 C21            4.7087     4.6486     1.3564 C.2     
  22 C22            3.5138     4.8208    -0.8096 C.3     
  23 C23            2.1334     4.8135    -1.4695 C.3     
  24 C24            4.1567     6.1978    -0.9874 C.3     
  25 C25            4.3975     3.7570    -1.4638 C.3     
  26 O26            5.3026     3.6580     1.7265 O.2     
  27 N27            5.2482     5.8687     1.5480 N.am    
  28 C28            6.5834     5.9949     2.1376 C.3     
  29 C29           -3.5517     2.4584     1.8638 C.3     
  30 F30            4.2884    -4.1619     0.8383 F       
  31 C31            2.6941    -6.0443     2.1930 C.3     
  32 F32            1.6959    -6.7346     2.8889 F       
  33 F33            2.9228    -6.6701     0.9628 F       
  34 F34            3.8741    -6.0480     2.9445 F       
  35 H35            3.4911     2.4199     1.0026 H       
  36 H36           -1.2228    -2.0733     1.2041 H       
  37 H37           -2.0065    -0.8208     2.1986 H       
  38 H38           -1.8300    -0.3951    -0.7798 H       
  39 H39           -3.0380    -1.5429    -0.1569 H       
  40 H40           -3.6395     1.0208    -0.4229 H       
  41 H41           -4.2166     0.1018     0.9831 H       
  42 H42           -1.2832     3.0094     1.1258 H       
  43 H43           -1.6511     2.0962    -0.3586 H       
  44 H44           -0.3566    -2.5724     2.5691 H       
  45 H45            0.3743    -4.8905     2.9445 H       
  46 H46            3.3285    -1.7553     0.5360 H       
  47 H47            2.6644     5.2177     1.1300 H       
  48 H48            1.5038     5.5714    -1.0034 H       
  49 H49            2.2377     5.0312    -2.5324 H       
  50 H50            1.6754     3.8325    -1.3428 H       
  51 H51            5.1268     6.2127    -0.4906 H       
  52 H52            4.2895     6.4023    -2.0498 H       
  53 H53            3.5120     6.9592    -0.5486 H       
  54 H54            3.9395     2.7760    -1.3372 H       
  55 H55            4.5018     3.9747    -2.5268 H       
  56 H56            5.3809     3.7622    -0.9937 H       
  57 H57            4.7524     6.6633     1.2956 H       
  58 H58            6.5856     5.5470     3.1313 H       
  59 H59            7.3092     5.4822     1.5064 H       
  60 H60            6.8488     7.0494     2.2137 H       
  61 H61           -4.3696     1.9918     2.4128 H       
  62 H62           -3.0102     3.1353     2.5245 H       
  63 H63           -3.9538     3.0188     1.0197 H       
@<TRIPOS>BOND
   1    1    2 1
   2    1    3 2
   3    1   14 1
   4    2   10 1
   5    2    5 1
   6    3    4 1
   7    3    7 1
   8    4    5 2
   9    5    6 1
  10    6   15 ar
  11    6   19 ar
  12    7    8 2
  13    7    9 am
  14    9   20 1
  15    9   35 1
  16   10   11 1
  17   10   36 1
  18   10   37 1
  19   11   12 1
  20   11   38 1
  21   11   39 1
  22   12   13 1
  23   12   40 1
  24   12   41 1
  25   13   14 1
  26   13   29 1
  27   14   42 1
  28   14   43 1
  29   15   16 ar
  30   15   44 1
  31   16   17 ar
  32   16   45 1
  33   17   18 ar
  34   17   31 1
  35   18   19 ar
  36   18   30 1
  37   19   46 1
  38   20   21 1
  39   20   22 1
  40   20   47 1
  41   21   26 2
  42   21   27 am
  43   22   23 1
  44   22   24 1
  45   22   25 1
  46   23   48 1
  47   23   49 1
  48   23   50 1
  49   24   51 1
  50   24   52 1
  51   24   53 1
  52   25   54 1
  53   25   55 1
  54   25   56 1
  55   27   28 1
  56   27   57 1
  57   28   58 1
  58   28   59 1
  59   28   60 1
  60   29   61 1
  61   29   62 1
  62   29   63 1
  63   31   32 1
  64   31   33 1
  65   31   34 1

#	End of record

