#	Name: ASD01910767
#	Creating user name:	WinNT
#	Creation time:	15. 06. 2019 19:56

#	Modifying user name:	WinNT
#	Modification time:	15. 06. 2019 19:56

#	Program:	/corina/corina34_cracker 3.40 0067  02.08.2006

@<TRIPOS>MOLECULE
ASD01910767
  52   55    0    0    0
SMALL
NO_CHARGES


@<TRIPOS>ATOM
   1 N1            -2.1478     1.4736     0.6825 N.am    
   2 C2            -2.1844     0.0033     0.6805 C.3     
   3 C3            -2.2853    -0.4831     2.1302 C.3     
   4 N4            -3.4305     0.1659     2.7824 N.3     
   5 C5            -3.2491     1.6219     2.8524 C.3     
   6 C6            -3.1876     2.1946     1.4324 C.3     
   7 C7            -3.6535    -0.3696     4.0456 C.ar    
   8 C8            -4.6989     0.1153     4.8253 C.ar    
   9 C9            -4.9094    -0.4266     6.0802 C.ar    
  10 C10           -4.0643    -1.4393     6.5151 C.ar    
  11 C11           -3.0468    -1.8722     5.6891 C.ar    
  12 N12           -2.8727    -1.3403     4.4939 N.ar    
  13 C13           -1.1838     2.1425     0.0194 C.2     
  14 C14           -1.2353     3.6176    -0.0703 C.ar    
  15 C15           -2.4548     4.2630    -0.2627 C.ar    
  16 C16           -2.4943     5.6547    -0.3456 C.ar    
  17 C17           -1.3110     6.3917    -0.2351 C.ar    
  18 C18           -0.1069     5.7445    -0.0450 C.ar    
  19 C19           -0.0622     4.3669     0.0437 C.ar    
  20 O20           -0.2721     1.5333    -0.5050 O.2     
  21 C21           -3.7430     6.3270    -0.5438 C.1     
  22 C22           -4.7668     6.8782    -0.7063 C.1     
  23 C23           -6.0155     7.5505    -0.9045 C.ar    
  24 C24           -6.0567     8.9448    -0.9878 C.ar    
  25 C25           -7.2630     9.5854    -1.1793 C.ar    
  26 C26           -8.4307     8.8509    -1.2884 C.ar    
  27 C27           -8.3977     7.4699    -1.2065 C.ar    
  28 C28           -7.1979     6.8152    -1.0214 C.ar    
  29 C29           -1.3505     7.8956    -0.3243 C.3     
  30 H30           -3.0521    -0.3407     0.1177 H       
  31 H31           -1.2726    -0.3850     0.2267 H       
  32 H32           -2.4244    -1.5641     2.1423 H       
  33 H33           -1.3700    -0.2277     2.6641 H       
  34 H34           -4.0871     2.0675     3.3884 H       
  35 H35           -2.3203     1.8480     3.3763 H       
  36 H36           -2.9392     3.2550     1.4756 H       
  37 H37           -4.1518     2.0612     0.9418 H       
  38 H38           -5.3370     0.9044     4.4558 H       
  39 H39           -5.7127    -0.0701     6.7079 H       
  40 H40           -4.2017    -1.8833     7.4900 H       
  41 H41           -2.3874    -2.6594     6.0234 H       
  42 H42           -3.3653     3.6884    -0.3477 H       
  43 H43            0.8042     6.3183     0.0391 H       
  44 H44            0.8830     3.8675     0.1973 H       
  45 H45           -5.1463     9.5194    -0.9021 H       
  46 H46           -7.2964    10.6630    -1.2438 H       
  47 H47           -9.3725     9.3579    -1.4379 H       
  48 H48           -9.3131     6.9032    -1.2918 H       
  49 H49           -7.1730     5.7371    -0.9625 H       
  50 H50           -1.4906     8.3151     0.6720 H       
  51 H51           -0.4124     8.2595    -0.7432 H       
  52 H52           -2.1773     8.1999    -0.9661 H       
@<TRIPOS>BOND
   1    1    2 1
   2    1    6 1
   3    1   13 am
   4    2    3 1
   5    2   30 1
   6    2   31 1
   7    3    4 1
   8    3   32 1
   9    3   33 1
  10    4    5 1
  11    4    7 1
  12    5    6 1
  13    5   34 1
  14    5   35 1
  15    6   36 1
  16    6   37 1
  17    7    8 ar
  18    7   12 ar
  19    8    9 ar
  20    8   38 1
  21    9   10 ar
  22    9   39 1
  23   10   11 ar
  24   10   40 1
  25   11   12 ar
  26   11   41 1
  27   13   14 1
  28   13   20 2
  29   14   15 ar
  30   14   19 ar
  31   15   16 ar
  32   15   42 1
  33   16   17 ar
  34   16   21 1
  35   17   18 ar
  36   17   29 1
  37   18   19 ar
  38   18   43 1
  39   19   44 1
  40   21   22 3
  41   22   23 1
  42   23   24 ar
  43   23   28 ar
  44   24   25 ar
  45   24   45 1
  46   25   26 ar
  47   25   46 1
  48   26   27 ar
  49   26   47 1
  50   27   28 ar
  51   27   48 1
  52   28   49 1
  53   29   50 1
  54   29   51 1
  55   29   52 1

#	End of record

