#	Name: ASD04880525
#	Creating user name:	WinNT
#	Creation time:	15. 06. 2019 20:53

#	Modifying user name:	WinNT
#	Modification time:	15. 06. 2019 20:53

#	Program:	/corina/corina34_cracker 3.40 0067  02.08.2006

@<TRIPOS>MOLECULE
ASD04880525
  37   39    0    0    0
SMALL
NO_CHARGES


@<TRIPOS>ATOM
   1 C1            -0.0144     1.2117     0.0087 C.2     
   2 O2             0.0478    -0.0024     0.0311 O.2     
   3 N3             1.1160     1.9435    -0.0478 N.am    
   4 N4             1.1788     3.3282    -0.1901 N.2     
   5 C5             2.3770     3.8006    -0.2186 C.2     
   6 C6             3.3698     2.6681    -0.0845 C.3     
   7 C7             2.4853     1.4113     0.0370 C.3     
   8 C8             2.7265     5.2262    -0.3609 C.ar    
   9 C9             1.7193     6.1874    -0.4779 C.ar    
  10 C10            2.0535     7.5188    -0.6107 C.ar    
  11 C11            3.3828     7.9036    -0.6284 C.ar    
  12 C12            4.3854     6.9572    -0.5131 C.ar    
  13 C13            4.0658     5.6224    -0.3738 C.ar    
  14 C14            0.9687     8.5571    -0.7375 C.3     
  15 O15            0.6028     9.0248     0.5623 O.3     
  16 C16           -1.3298     1.8848     0.0373 C.ar    
  17 C17           -1.4039     3.2738     0.1560 C.ar    
  18 C18           -2.6370     3.8964     0.1816 C.ar    
  19 C19           -3.7975     3.1441     0.0896 C.ar    
  20 C20           -3.7287     1.7678    -0.0282 C.ar    
  21 C21           -2.5031     1.1349    -0.0602 C.ar    
  22 F22           -2.7118     5.2404     0.2969 F       
  23 H23            4.0046     2.6094    -0.9686 H       
  24 H24            3.9742     2.7939     0.8138 H       
  25 H25            2.6463     0.9178     0.9954 H       
  26 H26            2.6819     0.7252    -0.7868 H       
  27 H27            0.6816     5.8886    -0.4646 H       
  28 H28            3.6388     8.9476    -0.7331 H       
  29 H29            5.4206     7.2645    -0.5277 H       
  30 H30            4.8493     4.8852    -0.2790 H       
  31 H31            1.3335     9.3927    -1.3349 H       
  32 H32            0.0984     8.1159    -1.2232 H       
  33 H33           -0.0924     9.6969     0.5572 H       
  34 H34           -0.4998     3.8600     0.2281 H       
  35 H35           -4.7594     3.6347     0.1103 H       
  36 H36           -4.6367     1.1873    -0.0991 H       
  37 H37           -2.4516     0.0604    -0.1564 H       
@<TRIPOS>BOND
   1    1    2 2
   2    1    3 am
   3    1   16 1
   4    3    4 1
   5    3    7 1
   6    4    5 2
   7    5    6 1
   8    5    8 1
   9    6    7 1
  10    6   23 1
  11    6   24 1
  12    7   25 1
  13    7   26 1
  14    8    9 ar
  15    8   13 ar
  16    9   10 ar
  17    9   27 1
  18   10   11 ar
  19   10   14 1
  20   11   12 ar
  21   11   28 1
  22   12   13 ar
  23   12   29 1
  24   13   30 1
  25   14   15 1
  26   14   31 1
  27   14   32 1
  28   15   33 1
  29   16   17 ar
  30   16   21 ar
  31   17   18 ar
  32   17   34 1
  33   18   19 ar
  34   18   22 1
  35   19   20 ar
  36   19   35 1
  37   20   21 ar
  38   20   36 1
  39   21   37 1

#	End of record

