#	Name: ASD01870313
#	Creating user name:	WinNT
#	Creation time:	15. 06. 2019 19:39

#	Modifying user name:	WinNT
#	Modification time:	15. 06. 2019 19:39

#	Program:	/corina/corina34_cracker 3.40 0067  02.08.2006

@<TRIPOS>MOLECULE
ASD01870313
  35   37    0    0    0
SMALL
NO_CHARGES


@<TRIPOS>ATOM
   1 C1            -0.0184     1.5028     0.0103 C.3     
   2 C2             0.2533     0.0334    -0.1847 C.2     
   3 N3            -0.7701    -0.8205    -0.3847 N.am    
   4 O4             1.3929    -0.3809    -0.1618 O.2     
   5 C5            -0.5202    -2.1724    -0.5641 C.2     
   6 O6            -1.4480    -3.1196    -0.7707 O.3     
   7 C7            -0.8081    -4.3018    -0.8972 C.2     
   8 C8             0.5051    -4.0595    -0.7658 C.2     
   9 N9             0.6612    -2.7374    -0.5660 N.2     
  10 C10            1.2848     2.2321     0.2126 C.ar    
  11 C11            1.4643     3.0305     1.3266 C.ar    
  12 C12           -1.8869     2.7729    -1.0670 C.ar    
  13 C13           -0.7168     2.0505    -1.2076 C.ar    
  14 C14           -2.5275     3.2753    -2.1841 C.ar    
  15 C15           -1.9980     3.0553    -3.4420 C.ar    
  16 C16           -0.8276     2.3332    -3.5826 C.ar    
  17 C17           -0.1870     1.8308    -2.4654 C.ar    
  18 C18            2.6597     3.6995     1.5121 C.ar    
  19 C19            3.6758     3.5696     0.5838 C.ar    
  20 C20            3.4966     2.7705    -0.5297 C.ar    
  21 C21            2.3027     2.0981    -0.7131 C.ar    
  22 H22           -0.6523     1.6419     0.8860 H       
  23 H23           -1.6816    -0.4892    -0.4031 H       
  24 H24           -1.2677    -5.2634    -1.0718 H       
  25 H25            1.2959    -4.7934    -0.8156 H       
  26 H26            0.6706     3.1320     2.0519 H       
  27 H27           -2.3030     2.9410    -0.0846 H       
  28 H28           -3.4419     3.8395    -2.0743 H       
  29 H29           -2.4988     3.4473    -4.3148 H       
  30 H30           -0.4139     2.1613    -4.5653 H       
  31 H31            0.7272     1.2664    -2.5753 H       
  32 H32            2.7997     4.3239     2.3822 H       
  33 H33            4.6094     4.0929     0.7284 H       
  34 H34            4.2902     2.6693    -1.2552 H       
  35 H35            2.1641     1.4708    -1.5812 H       
@<TRIPOS>BOND
   1    1    2 1
   2    1   10 1
   3    1   13 1
   4    1   22 1
   5    2    3 am
   6    2    4 2
   7    3    5 1
   8    3   23 1
   9    5    6 1
  10    5    9 2
  11    6    7 1
  12    7    8 2
  13    7   24 1
  14    8    9 1
  15    8   25 1
  16   10   21 ar
  17   10   11 ar
  18   11   18 ar
  19   11   26 1
  20   12   14 ar
  21   12   13 ar
  22   12   27 1
  23   13   17 ar
  24   14   15 ar
  25   14   28 1
  26   15   16 ar
  27   15   29 1
  28   16   17 ar
  29   16   30 1
  30   17   31 1
  31   18   19 ar
  32   18   32 1
  33   19   20 ar
  34   19   33 1
  35   20   21 ar
  36   20   34 1
  37   21   35 1

#	End of record

