#	Name: ASD01870033
#	Creating user name:	WinNT
#	Creation time:	15. 06. 2019 19:38

#	Modifying user name:	WinNT
#	Modification time:	15. 06. 2019 19:38

#	Program:	/corina/corina34_cracker 3.40 0067  02.08.2006

@<TRIPOS>MOLECULE
ASD01870033
  37   40    0    0    0
SMALL
NO_CHARGES


@<TRIPOS>ATOM
   1 C1             0.0117     1.2640    -0.3704 C.ar    
   2 C2            -0.0272     0.1130     0.3930 C.ar    
   3 N3             1.0653    -0.3891     0.9237 N.ar    
   4 C4             2.2677     0.1759     0.7592 C.ar    
   5 C5             2.3943     1.3368     0.0041 C.ar    
   6 C6             1.2285     1.8985    -0.5790 C.ar    
   7 S7             3.8358    -0.3263     1.3745 S.3     
   8 C8             4.6629     1.0234     0.6176 C.2     
   9 C9             3.7755     1.8203    -0.0741 C.2     
  10 C10            6.0382     1.3784     0.6235 C.2     
  11 N11            6.4263     2.4813    -0.0471 N.am    
  12 C12            5.5076     3.2304    -0.7123 C.2     
  13 N13            4.2483     2.9183    -0.7250 N.2     
  14 N14            1.3036     3.0556    -1.3411 N.3     
  15 C15            7.7760     2.8557    -0.0582 C.ar    
  16 O16            6.8529     0.6980     1.2246 O.2     
  17 C17            0.8277     2.8161    -2.7101 C.3     
  18 C18            0.5578     4.1519    -0.7088 C.3     
  19 C19            8.6212     2.3818    -1.0528 C.ar    
  20 C20            9.9514     2.7529    -1.0617 C.ar    
  21 C21           10.4422     3.5962    -0.0806 C.ar    
  22 C22            9.6022     4.0698     0.9117 C.ar    
  23 C23            8.2700     3.7061     0.9222 C.ar    
  24 Br24          12.2643     4.1016    -0.0955 Br      
  25 H25           -0.8936     1.6629    -0.8036 H       
  26 H26           -0.9726    -0.3828     0.5569 H       
  27 H27            5.8351     4.1111    -1.2447 H       
  28 H28           -0.2099     2.4835    -2.6811 H       
  29 H29            0.8974     3.7391    -3.2857 H       
  30 H30            1.4425     2.0480    -3.1793 H       
  31 H31            0.9764     4.3549     0.2770 H       
  32 H32            0.6332     5.0466    -1.3268 H       
  33 H33           -0.4896     3.8677    -0.6073 H       
  34 H34            8.2387     1.7233    -1.8187 H       
  35 H35           10.6092     2.3843    -1.8348 H       
  36 H36            9.9878     4.7279     1.6763 H       
  37 H37            7.6147     4.0764     1.6967 H       
@<TRIPOS>BOND
   1    1    2 ar
   2    1    6 ar
   3    1   25 1
   4    2    3 ar
   5    2   26 1
   6    3    4 ar
   7    4    5 ar
   8    4    7 1
   9    5    6 ar
  10    5    9 1
  11    6   14 1
  12    7    8 1
  13    8    9 2
  14    8   10 1
  15    9   13 1
  16   10   11 am
  17   10   16 2
  18   11   12 1
  19   11   15 1
  20   12   13 2
  21   12   27 1
  22   14   17 1
  23   14   18 1
  24   15   19 ar
  25   15   23 ar
  26   17   28 1
  27   17   29 1
  28   17   30 1
  29   18   31 1
  30   18   32 1
  31   18   33 1
  32   19   20 ar
  33   19   34 1
  34   20   21 ar
  35   20   35 1
  36   21   22 ar
  37   21   24 1
  38   22   23 ar
  39   22   36 1
  40   23   37 1

#	End of record

