#	Name: ASD01913167
#	Creating user name:	WinNT
#	Creation time:	15. 06. 2019 20:01

#	Modifying user name:	WinNT
#	Modification time:	15. 06. 2019 20:01

#	Program:	/corina/corina34_cracker 3.40 0067  02.08.2006

@<TRIPOS>MOLECULE
ASD01913167
  48   51    0    0    0
SMALL
NO_CHARGES


@<TRIPOS>ATOM
   1 C1             0.7303     1.1796    -1.0053 C.3     
   2 N2             0.3535    -0.1342    -0.4729 N.am    
   3 C3             1.3091    -0.7960     0.4309 C.3     
   4 C4             2.5769    -1.0982    -0.3665 C.3     
   5 C5             3.0151     0.1082    -1.1544 C.ar    
   6 C6             4.3367     0.1495    -1.5895 C.ar    
   7 C7             4.8004     1.2236    -2.3239 C.ar    
   8 C8             3.9460     2.2659    -2.6309 C.ar    
   9 C9             2.6367     2.2280    -2.1977 C.ar    
  10 C10            2.1694     1.1514    -1.4557 C.ar    
  11 C11           -0.8200    -0.7121    -0.7976 C.2     
  12 C12           -1.8126     0.0319    -1.5982 C.ar    
  13 C13           -2.6083    -0.6421    -2.5237 C.ar    
  14 C14           -3.5435     0.0651    -3.2759 C.ar    
  15 C15           -3.6776     1.4518    -3.0962 C.ar    
  16 C16           -2.8801     2.1120    -2.1726 C.ar    
  17 C17           -1.9589     1.4117    -1.4243 C.ar    
  18 O18           -1.0612    -1.8460    -0.4311 O.2     
  19 C19           -4.3646    -0.6188    -4.2291 C.1     
  20 C20           -5.0378    -1.1795    -5.0106 C.1     
  21 C21           -5.8590    -1.8634    -5.9638 C.ar    
  22 C22           -6.7949    -1.1464    -6.7145 C.ar    
  23 C23           -7.5799    -1.8219    -7.6306 C.ar    
  24 C24           -7.4069    -3.1929    -7.7696 C.ar    
  25 C25           -6.4624    -3.8408    -6.9950 C.ar    
  26 N26           -5.7220    -3.1753    -6.1323 N.ar    
  27 O27           -4.5863     2.1453    -3.8257 O.3     
  28 C28           -4.6689     3.5525    -3.5912 C.3     
  29 F29            5.1726    -0.8689    -1.2908 F       
  30 H30            0.0899     1.4249    -1.8525 H       
  31 H31            0.6081     1.9344    -0.2285 H       
  32 H32            1.5465    -0.1352     1.2646 H       
  33 H33            0.8793    -1.7247     0.8062 H       
  34 H34            3.3726    -1.3859     0.3206 H       
  35 H35            2.3811    -1.9225    -1.0524 H       
  36 H36            5.8275     1.2491    -2.6569 H       
  37 H37            4.3021     3.1069    -3.2074 H       
  38 H38            1.9697     3.0429    -2.4374 H       
  39 H39           -2.4997    -1.7084    -2.6571 H       
  40 H40           -2.9848     3.1783    -2.0364 H       
  41 H41           -1.3447     1.9312    -0.7037 H       
  42 H42           -6.9036    -0.0802    -6.5807 H       
  43 H43           -8.3118    -1.2951    -8.2248 H       
  44 H44           -8.0053    -3.7483    -8.4765 H       
  45 H45           -6.3267    -4.9069    -7.1019 H       
  46 H46           -5.4325     3.9845    -4.2380 H       
  47 H47           -4.9315     3.7323    -2.5487 H       
  48 H48           -3.7055     4.0141    -3.8080 H       
@<TRIPOS>BOND
   1    1    2 1
   2    1   10 1
   3    1   30 1
   4    1   31 1
   5    2    3 1
   6    2   11 am
   7    3    4 1
   8    3   32 1
   9    3   33 1
  10    4    5 1
  11    4   34 1
  12    4   35 1
  13    5    6 ar
  14    5   10 ar
  15    6    7 ar
  16    6   29 1
  17    7    8 ar
  18    7   36 1
  19    8    9 ar
  20    8   37 1
  21    9   10 ar
  22    9   38 1
  23   11   12 1
  24   11   18 2
  25   12   13 ar
  26   12   17 ar
  27   13   14 ar
  28   13   39 1
  29   14   15 ar
  30   14   19 1
  31   15   16 ar
  32   15   27 1
  33   16   17 ar
  34   16   40 1
  35   17   41 1
  36   19   20 3
  37   20   21 1
  38   21   22 ar
  39   21   26 ar
  40   22   23 ar
  41   22   42 1
  42   23   24 ar
  43   23   43 1
  44   24   25 ar
  45   24   44 1
  46   25   26 ar
  47   25   45 1
  48   27   28 1
  49   28   46 1
  50   28   47 1
  51   28   48 1

#	End of record

