#	Name: ASD06140007
#	Creating user name:	WinNT
#	Creation time:	15. 06. 2019 21:05

#	Modifying user name:	WinNT
#	Modification time:	15. 06. 2019 21:05

#	Program:	/corina/corina34_cracker 3.40 0067  02.08.2006

@<TRIPOS>MOLECULE
ASD06140007
  38   40    0    0    0
SMALL
NO_CHARGES


@<TRIPOS>ATOM
   1 C1             0.0371     1.4101     0.0206 C.ar    
   2 C2             0.0485    -0.0059     0.0125 C.ar    
   3 C3            -1.2269    -0.7222     0.0142 C.ar    
   4 C4            -2.4052     0.0171     0.0238 C.ar    
   5 C5            -2.3674     1.4044     0.0312 C.ar    
   6 C6            -1.1921     2.0912     0.0360 C.ar    
   7 C7             1.2582     2.1061     0.0190 C.ar    
   8 C8             2.4291     1.4112     0.0096 C.ar    
   9 C9             2.4365     0.0185     0.0012 C.ar    
  10 C10            1.2704    -0.6880     0.0034 C.ar    
  11 C11           -1.2626    -2.1900     0.0055 C.2     
  12 N12           -0.1544    -2.8688    -0.1088 N.2     
  13 C13           -0.1876    -4.2355    -0.1169 C.ar    
  14 C14            0.5628    -4.9491    -1.0557 C.ar    
  15 C15           -0.9677    -4.9230     0.8172 C.ar    
  16 C16           -0.9982    -6.3003     0.8060 C.ar    
  17 C17           -0.2544    -7.0064    -0.1328 C.ar    
  18 C18            0.5269    -6.3263    -1.0603 C.ar    
  19 N19           -0.2880    -8.4041    -0.1408 N.am    
  20 C20           -0.2155    -9.0733    -1.3085 C.2     
  21 O21           -0.2193    -8.4645    -2.3575 O.2     
  22 C22           -0.1298   -10.5778    -1.3107 C.3     
  23 H23           -3.3572    -0.4927     0.0253 H       
  24 H24           -3.2967     1.9546     0.0379 H       
  25 H25           -1.2044     3.1711     0.0416 H       
  26 H26            1.2677     3.1861     0.0247 H       
  27 H27            3.3662     1.9481     0.0084 H       
  28 H28            3.3788    -0.5091    -0.0068 H       
  29 H29            1.2896    -1.7678    -0.0028 H       
  30 H30           -2.2064    -2.7077     0.0936 H       
  31 H31            1.1696    -4.4216    -1.7767 H       
  32 H32           -1.5454    -4.3752     1.5470 H       
  33 H33           -1.6003    -6.8322     1.5277 H       
  34 H34            1.1033    -6.8783    -1.7879 H       
  35 H35           -0.3636    -8.8922     0.6940 H       
  36 H36           -1.1347   -10.9990    -1.3414 H       
  37 H37            0.4297   -10.9086    -2.1857 H       
  38 H38            0.3776   -10.9142    -0.4065 H       
@<TRIPOS>BOND
   1    1    2 ar
   2    1    7 ar
   3    1    6 ar
   4    2    3 ar
   5    2   10 ar
   6    3    4 ar
   7    3   11 1
   8    4    5 ar
   9    4   23 1
  10    5    6 ar
  11    5   24 1
  12    6   25 1
  13    7    8 ar
  14    7   26 1
  15    8    9 ar
  16    8   27 1
  17    9   10 ar
  18    9   28 1
  19   10   29 1
  20   11   12 2
  21   11   30 1
  22   12   13 1
  23   13   14 ar
  24   13   15 ar
  25   14   18 ar
  26   14   31 1
  27   15   16 ar
  28   15   32 1
  29   16   17 ar
  30   16   33 1
  31   17   18 ar
  32   17   19 1
  33   18   34 1
  34   19   20 am
  35   19   35 1
  36   20   21 2
  37   20   22 1
  38   22   36 1
  39   22   37 1
  40   22   38 1

#	End of record

