#	Name: ASD00122019
#	Creating user name:	WinNT
#	Creation time:	15. 06. 2019 18:31

#	Modifying user name:	WinNT
#	Modification time:	15. 06. 2019 18:31

#	Program:	/corina/corina34_cracker 3.40 0067  02.08.2006

@<TRIPOS>MOLECULE
ASD00122019
  33   33    0    0    0
SMALL
NO_CHARGES


@<TRIPOS>ATOM
   1 C1            -0.0168     1.3880     0.0097 C.ar    
   2 C2             0.0021    -0.0041     0.0020 C.ar    
   3 C3             1.2154    -0.6866    -0.0127 C.ar    
   4 C4             2.4002     0.0133    -0.0198 C.ar    
   5 C5             2.3845     1.4112    -0.0126 C.ar    
   6 C6             1.1646     2.0936     0.0022 C.ar    
   7 C7             3.6529     2.1646    -0.0197 C.2     
   8 N8             3.6362     3.5122    -0.0127 N.am    
   9 O9             4.7133     1.5697    -0.0318 O.2     
  10 C10            4.8957     4.2604    -0.0198 C.3     
  11 C11            4.6614     5.6479    -0.6204 C.3     
  12 C12            5.4107     4.4055     1.4136 C.3     
  13 C13            5.7631     3.0249     1.9712 C.3     
  14 C14            4.2663     5.5066    -2.0917 C.3     
  15 N15           -1.1934    -0.7142     0.0096 N.pl3   
  16 H16           -0.9597     1.9146     0.0170 H       
  17 H17            1.2268    -1.7665    -0.0183 H       
  18 H18            3.3411    -0.5167    -0.0306 H       
  19 H19            1.1493     3.1735     0.0074 H       
  20 H20            2.7903     3.9867    -0.0031 H       
  21 H21            5.6329     3.7252    -0.6183 H       
  22 H22            3.8612     6.1491    -0.0759 H       
  23 H23            5.5761     6.2358    -0.5446 H       
  24 H24            6.2992     5.0368     1.4183 H       
  25 H25            4.6380     4.8610     2.0329 H       
  26 H26            6.1300     3.1283     2.9924 H       
  27 H27            4.8746     2.3936     1.9665 H       
  28 H28            6.5358     2.5694     1.3519 H       
  29 H29            5.0665     5.0054    -2.6363 H       
  30 H30            3.3516     4.9187    -2.1675 H       
  31 H31            4.0994     6.4951    -2.5197 H       
  32 H32           -2.0393    -0.2396     0.0202 H       
  33 H33           -1.1814    -1.6841     0.0043 H       
@<TRIPOS>BOND
   1    1    2 ar
   2    1    6 ar
   3    1   16 1
   4    2    3 ar
   5    2   15 1
   6    3    4 ar
   7    3   17 1
   8    4    5 ar
   9    4   18 1
  10    5    6 ar
  11    5    7 1
  12    6   19 1
  13    7    8 am
  14    7    9 2
  15    8   10 1
  16    8   20 1
  17   10   11 1
  18   10   12 1
  19   10   21 1
  20   11   14 1
  21   11   22 1
  22   11   23 1
  23   12   13 1
  24   12   24 1
  25   12   25 1
  26   13   26 1
  27   13   27 1
  28   13   28 1
  29   14   29 1
  30   14   30 1
  31   14   31 1
  32   15   32 1
  33   15   33 1

#	End of record

