#	Name: ASD01890337
#	Creating user name:	WinNT
#	Creation time:	15. 06. 2019 19:50

#	Modifying user name:	WinNT
#	Modification time:	15. 06. 2019 19:50

#	Program:	/corina/corina34_cracker 3.40 0067  02.08.2006

@<TRIPOS>MOLECULE
ASD01890337
  35   37    0    0    0
SMALL
NO_CHARGES


@<TRIPOS>ATOM
   1 C1            -0.0170     1.4053     0.0098 C.2     
   2 C2             0.0021    -0.0041     0.0020 C.2     
   3 C3             1.2050    -0.6769    -0.0131 C.2     
   4 O4             1.0289     2.0283     0.0031 O.2     
   5 O5            -1.1956     2.0645     0.0189 O.3     
   6 C6             1.2250    -2.1559    -0.0212 C.ar    
   7 C7             0.7140    -2.8580    -1.1143 C.ar    
   8 C8             0.7357    -4.2373    -1.1155 C.ar    
   9 C9             1.2621    -4.9249    -0.0362 C.ar    
  10 C10            1.7702    -4.2351     1.0504 C.ar    
  11 C11            1.7603    -2.8558     1.0616 C.ar    
  12 O12            3.3626     0.0773    -1.0296 O.3     
  13 C13            2.4669     0.0747    -0.0211 C.2     
  14 C14            2.9087     0.8739     0.9873 C.2     
  15 C15            4.1948     1.4104     0.5446 C.ar    
  16 C16            4.4158     0.8650    -0.7345 C.ar    
  17 C17            5.1358     2.2744     1.1096 C.ar    
  18 C18            6.2707     2.5873     0.4153 C.ar    
  19 C19            6.4932     2.0529    -0.8459 C.ar    
  20 C20            5.5768     1.1978    -1.4209 C.ar    
  21 C21            7.2870     3.5193     1.0233 C.3     
  22 H22           -0.9258    -0.5567     0.0079 H       
  23 H23           -1.1075     3.0275     0.0238 H       
  24 H24            0.3022    -2.3225    -1.9569 H       
  25 H25            0.3406    -4.7816    -1.9605 H       
  26 H26            1.2760    -6.0048    -0.0418 H       
  27 H27            2.1797    -4.7779     1.8896 H       
  28 H28            2.1617    -2.3185     1.9082 H       
  29 H29            2.4104     1.0720     1.9248 H       
  30 H30            4.9671     2.6935     2.0906 H       
  31 H31            7.3943     2.3093    -1.3831 H       
  32 H32            5.7613     0.7876    -2.4028 H       
  33 H33            8.0134     2.9417     1.5951 H       
  34 H34            7.7994     4.0649     0.2309 H       
  35 H35            6.7834     4.2253     1.6836 H       
@<TRIPOS>BOND
   1    1    2 1
   2    1    4 2
   3    1    5 1
   4    2    3 2
   5    2   22 1
   6    3    6 1
   7    3   13 1
   8    5   23 1
   9    6    7 ar
  10    6   11 ar
  11    7    8 ar
  12    7   24 1
  13    8    9 ar
  14    8   25 1
  15    9   10 ar
  16    9   26 1
  17   10   11 ar
  18   10   27 1
  19   11   28 1
  20   12   13 1
  21   12   16 1
  22   13   14 2
  23   14   15 1
  24   14   29 1
  25   15   16 ar
  26   15   17 ar
  27   16   20 ar
  28   17   18 ar
  29   17   30 1
  30   18   19 ar
  31   18   21 1
  32   19   20 ar
  33   19   31 1
  34   20   32 1
  35   21   33 1
  36   21   34 1
  37   21   35 1

#	End of record

