#	Name: ASD03080056
#	Creating user name:	WinNT
#	Creation time:	15. 06. 2019 20:26

#	Modifying user name:	WinNT
#	Modification time:	15. 06. 2019 20:26

#	Program:	/corina/corina34_cracker 3.40 0067  02.08.2006

@<TRIPOS>MOLECULE
ASD03080056
  26   28    0    0    0
SMALL
NO_CHARGES


@<TRIPOS>ATOM
   1 C1            -0.0170     1.4024     0.0098 C.2     
   2 C2             0.0021    -0.0041     0.0020 C.2     
   3 C3             1.1977    -0.6553    -0.0129 C.2     
   4 C4             2.3908     0.1004    -0.0203 C.2     
   5 C5             2.3275     1.4641    -0.0124 C.2     
   6 N6             1.1358     2.0969     0.0025 N.am    
   7 O7            -1.0834     1.9955     0.0180 O.2     
   8 O8             5.0958    -2.1195    -0.0579 O.3     
   9 N9             3.9074    -1.8779    -0.0450 N.2     
  10 C10            3.7065    -0.5844    -0.0361 C.2     
  11 N11            4.9178     0.0111    -0.0448 N.2     
  12 C12            5.7954    -0.9743    -0.0587 C.2     
  13 C13            7.8669     0.4185    -0.0714 C.ar    
  14 C14            7.2678    -0.8419    -0.0728 C.ar    
  15 C15            8.0843    -1.9786    -0.0874 C.ar    
  16 C16            9.4567    -1.8002    -0.0998 C.ar    
  17 C17            9.9726    -0.5170    -0.0974 C.ar    
  18 N18            9.1783     0.5365    -0.0836 N.ar    
  19 H19           -0.9226    -0.5620     0.0082 H       
  20 H20            1.2333    -1.7347    -0.0187 H       
  21 H21            3.2399     2.0419    -0.0177 H       
  22 H22            1.1097     3.0665     0.0080 H       
  23 H23            7.2497     1.3047    -0.0647 H       
  24 H24            7.6545    -2.9694    -0.0886 H       
  25 H25           10.1179    -2.6541    -0.1109 H       
  26 H26           11.0432    -0.3749    -0.1071 H       
@<TRIPOS>BOND
   1    1    2 1
   2    1    6 am
   3    1    7 2
   4    2    3 2
   5    2   19 1
   6    3    4 1
   7    3   20 1
   8    4    5 2
   9    4   10 1
  10    5    6 1
  11    5   21 1
  12    6   22 1
  13    8    9 1
  14    8   12 1
  15    9   10 2
  16   10   11 1
  17   11   12 2
  18   12   14 1
  19   13   14 ar
  20   13   18 ar
  21   13   23 1
  22   14   15 ar
  23   15   16 ar
  24   15   24 1
  25   16   17 ar
  26   16   25 1
  27   17   18 ar
  28   17   26 1

#	End of record

