#	Name: ASD01903023
#	Creating user name:	WinNT
#	Creation time:	15. 06. 2019 19:54

#	Modifying user name:	WinNT
#	Modification time:	15. 06. 2019 19:54

#	Program:	/corina/corina34_cracker 3.40 0067  02.08.2006

@<TRIPOS>MOLECULE
ASD01903023
  26   27    0    0    0
SMALL
NO_CHARGES


@<TRIPOS>ATOM
   1 C1             0.0072     1.3788    -0.2064 C.ar    
   2 C2             0.0291    -0.0063    -0.2070 C.ar    
   3 C3             1.2249    -0.6814     0.0075 C.ar    
   4 C4             2.3924     0.0287     0.2214 C.ar    
   5 C5             2.3729     1.4106     0.2224 C.ar    
   6 C6             1.1805     2.0894     0.0086 C.ar    
   7 N7             1.1616     3.4885     0.0092 N.am    
   8 C8             2.2068     4.1768    -0.4908 C.2     
   9 O9             3.2018     3.5853    -0.8646 O.2     
  10 C10            2.1444     5.6447    -0.5845 C.2     
  11 O11           -1.1183    -0.7047    -0.4168 O.3     
  12 F12            1.2467    -2.0322     0.0075 F       
  13 S13            3.4193     6.6855    -1.2108 S.3     
  14 C14            2.4517     8.0647    -0.9139 C.2     
  15 C15            1.2812     7.6744    -0.3853 C.2     
  16 N16            1.1326     6.3860    -0.2220 N.2     
  17 C17           -2.3101     0.0544    -0.6299 C.3     
  18 H18           -0.9202     1.9051    -0.3774 H       
  19 H19            3.3206    -0.4976     0.3883 H       
  20 H20            3.2857     1.9630     0.3901 H       
  21 H21            0.3961     3.9629     0.3696 H       
  22 H22            2.7371     9.0860    -1.1183 H       
  23 H23            0.5093     8.3800    -0.1159 H       
  24 H24           -2.5031     0.6799     0.2417 H       
  25 H25           -2.1864     0.6856    -1.5099 H       
  26 H26           -3.1498    -0.6232    -0.7840 H       
@<TRIPOS>BOND
   1    1    2 ar
   2    1    6 ar
   3    1   18 1
   4    2    3 ar
   5    2   11 1
   6    3    4 ar
   7    3   12 1
   8    4    5 ar
   9    4   19 1
  10    5    6 ar
  11    5   20 1
  12    6    7 1
  13    7    8 am
  14    7   21 1
  15    8    9 2
  16    8   10 1
  17   10   13 1
  18   10   16 2
  19   11   17 1
  20   13   14 1
  21   14   15 2
  22   14   22 1
  23   15   16 1
  24   15   23 1
  25   17   24 1
  26   17   25 1
  27   17   26 1

#	End of record

