#	Name: ASD01810451
#	Creating user name:	WinNT
#	Creation time:	15. 06. 2019 19:24

#	Modifying user name:	WinNT
#	Modification time:	15. 06. 2019 19:24

#	Program:	/corina/corina34_cracker 3.40 0067  02.08.2006

@<TRIPOS>MOLECULE
ASD01810451
  25   26    0    0    0
SMALL
NO_CHARGES


@<TRIPOS>ATOM
   1 C1            -0.0167     1.3825     0.0096 C.ar    
   2 C2             0.0021    -0.0041     0.0020 C.ar    
   3 C3             1.2279    -0.6670    -0.0132 C.ar    
   4 C4             2.3860     0.0895    -0.0202 C.ar    
   5 C5             2.2896     1.4765    -0.0118 C.ar    
   6 N6             1.1080     2.0727     0.0026 N.ar    
   7 N7            -1.1959    -0.7293     0.0100 N.pl3   
   8 N8             3.4499     2.2476    -0.0183 N.3     
   9 C9             3.1283     3.6865    -0.0076 C.3     
  10 C10            3.8286     4.3024     1.2219 C.3     
  11 C11            4.9684     3.2922     1.5174 C.3     
  12 C12            4.2936     1.9451     1.1575 C.3     
  13 H13           -0.9627     1.9036     0.0169 H       
  14 H14            1.2727    -1.7461    -0.0191 H       
  15 H15            3.3530    -0.3913    -0.0316 H       
  16 H16           -2.0458    -0.2618     0.0209 H       
  17 H17           -1.1759    -1.6991     0.0046 H       
  18 H18            3.4984     4.1560    -0.9190 H       
  19 H19            2.0500     3.8248     0.0719 H       
  20 H20            4.2365     5.2841     0.9815 H       
  21 H21            3.1413     4.3654     2.0655 H       
  22 H22            5.8315     3.4795     0.8785 H       
  23 H23            5.2505     3.3187     2.5699 H       
  24 H24            3.6781     1.5956     1.9864 H       
  25 H25            5.0468     1.1996     0.9024 H       
@<TRIPOS>BOND
   1    1    2 ar
   2    1    6 ar
   3    1   13 1
   4    2    3 ar
   5    2    7 1
   6    3    4 ar
   7    3   14 1
   8    4    5 ar
   9    4   15 1
  10    5    6 ar
  11    5    8 1
  12    7   16 1
  13    7   17 1
  14    8    9 1
  15    8   12 1
  16    9   10 1
  17    9   18 1
  18    9   19 1
  19   10   11 1
  20   10   20 1
  21   10   21 1
  22   11   12 1
  23   11   22 1
  24   11   23 1
  25   12   24 1
  26   12   25 1

#	End of record

