#	Name: ASD01001162
#	Creating user name:	WinNT
#	Creation time:	15. 06. 2019 18:55

#	Modifying user name:	WinNT
#	Modification time:	15. 06. 2019 18:55

#	Program:	/corina/corina34_cracker 3.40 0067  02.08.2006

@<TRIPOS>MOLECULE
ASD01001162
  40   43    0    0    0
SMALL
NO_CHARGES


@<TRIPOS>ATOM
   1 C1            -0.0184     1.5047     0.0103 C.3     
   2 C2             0.0021    -0.0041     0.0020 C.ar    
   3 C3             1.4094     2.0449    -0.0004 C.3     
   4 C4             1.1204    -0.7144     0.4203 C.ar    
   5 C5            -1.1194    -0.6812    -0.4308 C.ar    
   6 C6             2.2046     1.3871     1.1308 C.3     
   7 C7             1.1089    -2.1083     0.4087 C.ar    
   8 N8             2.2712    -0.0541     0.8508 N.pl3   
   9 C9             3.5964     1.9631     1.1789 C.ar    
  10 C10           -0.0071    -2.7887    -0.0207 C.ar    
  11 C11           -1.1334    -2.0781    -0.4456 C.ar    
  12 C12            3.9092     2.9380     2.1077 C.ar    
  13 C13            4.5617     1.5125     0.2980 C.ar    
  14 C14            5.1859     3.4663     2.1518 C.ar    
  15 C15            5.8383     2.0408     0.3421 C.ar    
  16 C16            6.1497     3.0194     1.2674 C.ar    
  17 O17           -0.6983     1.9450     1.1885 O.3     
  18 C18            1.4106     3.5620     0.1661 C.3     
  19 C19           -0.7810     3.3631     1.3320 C.3     
  20 C20            0.6347     3.9400     1.4312 C.3     
  21 C21           -2.2981    -2.7799    -0.8946 C.1     
  22 N22           -3.2221    -3.3366    -1.2508 N.1     
  23 H23           -0.5496     1.8654    -0.8705 H       
  24 H24            1.8770     1.8030    -0.9549 H       
  25 H25           -1.9884    -0.1301    -0.7586 H       
  26 H26            1.7011     1.5556     2.0828 H       
  27 H27            1.9795    -2.6561     0.7377 H       
  28 H28            3.1036    -0.5391     0.9635 H       
  29 H29           -0.0129    -3.8686    -0.0294 H       
  30 H30            3.1562     3.2871     2.7986 H       
  31 H31            4.3185     0.7474    -0.4245 H       
  32 H32            5.4301     4.2285     2.8769 H       
  33 H33            6.5926     1.6885    -0.3459 H       
  34 H34            7.1472     3.4322     1.3019 H       
  35 H35            2.4377     3.9171     0.2504 H       
  36 H36            0.9376     4.0227    -0.7012 H       
  37 H37           -1.2878     3.7882     0.4656 H       
  38 H38           -1.3378     3.6061     2.2370 H       
  39 H39            1.1374     3.5264     2.3054 H       
  40 H40            0.5819     5.0253     1.5168 H       
@<TRIPOS>BOND
   1    1    2 1
   2    1    3 1
   3    1   17 1
   4    1   23 1
   5    2    4 ar
   6    2    5 ar
   7    3    6 1
   8    3   18 1
   9    3   24 1
  10    4    7 ar
  11    4    8 1
  12    5   11 ar
  13    5   25 1
  14    6    8 1
  15    6    9 1
  16    6   26 1
  17    7   10 ar
  18    7   27 1
  19    8   28 1
  20    9   12 ar
  21    9   13 ar
  22   10   11 ar
  23   10   29 1
  24   11   21 1
  25   12   14 ar
  26   12   30 1
  27   13   15 ar
  28   13   31 1
  29   14   16 ar
  30   14   32 1
  31   15   16 ar
  32   15   33 1
  33   16   34 1
  34   17   19 1
  35   18   20 1
  36   18   35 1
  37   18   36 1
  38   19   20 1
  39   19   37 1
  40   19   38 1
  41   20   39 1
  42   20   40 1
  43   21   22 3

#	End of record

