#	Name: ASD01680141
#	Creating user name:	WinNT
#	Creation time:	15. 06. 2019 19:22

#	Modifying user name:	WinNT
#	Modification time:	15. 06. 2019 19:22

#	Program:	/corina/corina34_cracker 3.40 0067  02.08.2006

@<TRIPOS>MOLECULE
ASD01680141
  83   86    0    0    0
SMALL
NO_CHARGES


@<TRIPOS>ATOM
   1 N1             0.1049     1.4829     0.1046 N.am    
   2 C2            -0.0215     0.0222    -0.0047 C.3     
   3 C3             1.4011    -0.5487    -0.1832 C.3     
   4 C4             2.1965     0.6654    -0.7315 C.3     
   5 C5             1.5330     1.8408     0.0286 C.3     
   6 C6            -0.9162     2.3513     0.2452 C.2     
   7 O7            -2.0632     1.9529     0.1996 O.2     
   8 O8            -0.6652     3.6602     0.4361 O.3     
   9 C9            -0.6527    -0.5424     1.2696 C.3     
  10 N10           -0.6251    -2.0103     1.2209 N.3     
  11 C11            0.1246    -0.0649     2.4692 C.ar    
  12 C12           -0.5066     0.7008     3.4315 C.ar    
  13 C13            0.2173     1.1346     4.5314 C.ar    
  14 C14            1.5549     0.7804     4.6226 C.ar    
  15 C15            2.1179     0.0124     3.6213 C.ar    
  16 N16            1.3973    -0.3869     2.5914 N.ar    
  17 O17            3.5831     0.5602    -0.4023 O.3     
  18 C18            4.4545     1.1747    -1.3537 C.3     
  19 C19            5.8842     1.0042    -0.9087 C.2     
  20 N20            6.8870     1.5070    -1.6557 N.am    
  21 O21            6.1324     0.4146     0.1217 O.2     
  22 C22            8.2769     1.3413    -1.2232 C.3     
  23 C23            9.2099     1.9992    -2.2417 C.3     
  24 N24            8.8193     3.3987    -2.4291 N.am    
  25 C25            9.1197     4.0339    -3.5792 C.2     
  26 O26            9.7147     3.4456    -4.4612 O.2     
  27 N27            8.7604     5.3215    -3.7515 N.am    
  28 C28            9.0868     6.0120    -5.0017 C.3     
  29 C29            8.5708     7.4510    -4.9392 C.3     
  30 C30            8.9066     8.1613    -6.2251 C.ar    
  31 C31            8.0171     8.1333    -7.2829 C.ar    
  32 C32            8.3252     8.7848    -8.4625 C.ar    
  33 C33            9.5225     9.4648    -8.5842 C.ar    
  34 C34           10.4116     9.4936    -7.5261 C.ar    
  35 C35           10.1017     8.8457    -6.3450 C.ar    
  36 C36           10.6285     1.9368    -1.7371 C.2     
  37 O37           11.2496     2.9567    -1.5528 O.2     
  38 O38           11.2021     0.7482    -1.4923 O.3     
  39 C39           -1.8133     4.5375     0.5795 C.3     
  40 C40           -1.3409     5.9538     0.7837 C.ar    
  41 C41           -1.1380     6.7788    -0.3067 C.ar    
  42 C42           -0.7046     8.0780    -0.1194 C.ar    
  43 C43           -0.4745     8.5524     1.1585 C.ar    
  44 C44           -0.6782     7.7277     2.2490 C.ar    
  45 C45           -1.1158     6.4298     2.0619 C.ar    
  46 H46           -0.6345    -0.2332    -0.8690 H       
  47 H47            1.8081    -0.8761     0.7735 H       
  48 H48            1.4008    -1.3667    -0.9036 H       
  49 H49            2.0588     0.7688    -1.8078 H       
  50 H50            1.6619     2.7712    -0.5244 H       
  51 H51            1.9550     1.9318     1.0295 H       
  52 H52           -1.6849    -0.2007     1.3460 H       
  53 H53            0.3216    -2.3520     1.1500 H       
  54 H54           -1.0939    -2.4075     2.0212 H       
  55 H55           -1.5503     0.9581     3.3277 H       
  56 H56           -0.2493     1.7344     5.2988 H       
  57 H57            2.1493     1.1011     5.4654 H       
  58 H58            3.1590    -0.2677     3.6849 H       
  59 H59            4.3186     0.7045    -2.3276 H       
  60 H60            4.2211     2.2368    -1.4272 H       
  61 H61            6.6885     1.9786    -2.4798 H       
  62 H62            8.4128     1.8114    -0.2492 H       
  63 H63            8.5103     0.2791    -1.1496 H       
  64 H64            9.1391     1.4717    -3.1930 H       
  65 H65            8.3446     3.8681    -1.7254 H       
  66 H66            8.2856     5.7909    -3.0478 H       
  67 H67           10.1678     6.0194    -5.1411 H       
  68 H68            8.6163     5.4932    -5.8369 H       
  69 H69            7.4898     7.4436    -4.7998 H       
  70 H70            9.0414     7.9698    -4.1040 H       
  71 H71            7.0816     7.6020    -7.1878 H       
  72 H72            7.6305     8.7623    -9.2892 H       
  73 H73            9.7635     9.9732    -9.5061 H       
  74 H74           11.3473    10.0246    -7.6213 H       
  75 H75           10.7947     8.8713    -5.5171 H       
  76 H76           12.1137     0.7587    -1.1698 H       
  77 H77           -2.4254     4.4849    -0.3209 H       
  78 H78           -2.4048     4.2241     1.4397 H       
  79 H79           -1.3178     6.4082    -1.3051 H       
  80 H80           -0.5454     8.7224    -0.9714 H       
  81 H81           -0.1351     9.5672     1.3048 H       
  82 H82           -0.4981     8.0982     3.2473 H       
  83 H83           -1.2785     5.7866     2.9141 H       
@<TRIPOS>BOND
   1    1    2 1
   2    1    5 1
   3    1    6 am
   4    2    3 1
   5    2    9 1
   6    2   46 1
   7    3    4 1
   8    3   47 1
   9    3   48 1
  10    4    5 1
  11    4   17 1
  12    4   49 1
  13    5   50 1
  14    5   51 1
  15    6    7 2
  16    6    8 1
  17    8   39 1
  18    9   10 1
  19    9   11 1
  20    9   52 1
  21   10   53 1
  22   10   54 1
  23   11   12 ar
  24   11   16 ar
  25   12   13 ar
  26   12   55 1
  27   13   14 ar
  28   13   56 1
  29   14   15 ar
  30   14   57 1
  31   15   16 ar
  32   15   58 1
  33   17   18 1
  34   18   19 1
  35   18   59 1
  36   18   60 1
  37   19   20 am
  38   19   21 2
  39   20   22 1
  40   20   61 1
  41   22   23 1
  42   22   62 1
  43   22   63 1
  44   23   24 1
  45   23   36 1
  46   23   64 1
  47   24   25 am
  48   24   65 1
  49   25   26 2
  50   25   27 am
  51   27   28 1
  52   27   66 1
  53   28   29 1
  54   28   67 1
  55   28   68 1
  56   29   30 1
  57   29   69 1
  58   29   70 1
  59   30   31 ar
  60   30   35 ar
  61   31   32 ar
  62   31   71 1
  63   32   33 ar
  64   32   72 1
  65   33   34 ar
  66   33   73 1
  67   34   35 ar
  68   34   74 1
  69   35   75 1
  70   36   37 2
  71   36   38 1
  72   38   76 1
  73   39   40 1
  74   39   77 1
  75   39   78 1
  76   40   41 ar
  77   40   45 ar
  78   41   42 ar
  79   41   79 1
  80   42   43 ar
  81   42   80 1
  82   43   44 ar
  83   43   81 1
  84   44   45 ar
  85   44   82 1
  86   45   83 1

#	End of record

