#	Name: ASD01884978
#	Creating user name:	WinNT
#	Creation time:	15. 06. 2019 19:49

#	Modifying user name:	WinNT
#	Modification time:	15. 06. 2019 19:49

#	Program:	/corina/corina34_cracker 3.40 0067  02.08.2006

@<TRIPOS>MOLECULE
ASD01884978
  44   48    0    0    0
SMALL
NO_CHARGES


@<TRIPOS>ATOM
   1 C1            -0.1548     1.5901    -0.7010 C.ar    
   2 C2            -0.3287     0.2267    -0.8078 C.ar    
   3 C3             0.6420    -0.6401    -0.3055 C.ar    
   4 C4             1.7860    -0.1238     0.3034 C.ar    
   5 C5             1.9537     1.2405     0.4069 C.ar    
   6 C6             0.9853     2.1008    -0.0941 C.ar    
   7 C7             0.4582    -2.1058    -0.4181 C.2     
   8 C8             1.3174    -2.8593    -1.1958 C.2     
   9 C9            -0.5961    -2.7496     0.2747 C.2     
  10 C10           -0.7608    -4.0817     0.1717 C.2     
  11 N11            0.0802    -4.8330    -0.5978 N.pl3   
  12 C12            1.1178    -4.2475    -1.2825 C.2     
  13 C13            0.1521    -6.1631    -0.8808 C.2     
  14 N14            1.1678    -6.3404    -1.6856 N.2     
  15 N15            1.7461    -5.2172    -1.9295 N.2     
  16 C16           -0.7703    -7.2355    -0.3609 C.3     
  17 C17           -0.6353    -8.6358    -0.9624 C.3     
  18 C18           -0.1475    -8.3648     0.4622 C.3     
  19 O19            1.1538     3.4448     0.0091 O.3     
  20 C20            0.6476     4.0685     1.1038 C.ar    
  21 C21            0.6854     5.4579     1.2167 C.ar    
  22 C22            0.1590     6.0537     2.3468 C.ar    
  23 N23           -0.3729     5.3245     3.3095 N.ar    
  24 C24           -0.4264     4.0080     3.2381 C.ar    
  25 C25            0.0724     3.3377     2.1398 C.ar    
  26 F26            1.2292     6.2105     0.2354 F       
  27 C27            2.4510    -2.2017    -1.9398 C.3     
  28 F28            3.6185    -2.2778    -1.1729 F       
  29 F29            2.6507    -2.8573    -3.1595 F       
  30 F30            2.1361    -0.8596    -2.1779 F       
  31 H31           -0.9038     2.2618    -1.0937 H       
  32 H32           -1.2157    -0.1698    -1.2795 H       
  33 H33            2.5392    -0.7923     0.6936 H       
  34 H34            2.8390     1.6409     0.8786 H       
  35 H35           -1.2700    -2.1699     0.8880 H       
  36 H36           -1.5679    -4.5620     0.7048 H       
  37 H37           -1.7696    -6.9014    -0.0819 H       
  38 H38           -1.5460    -9.2232    -1.0793 H       
  39 H39            0.1206    -8.7814    -1.7340 H       
  40 H40            0.9294    -8.3321     0.6278 H       
  41 H41           -0.7372    -8.7740     1.2826 H       
  42 H42            0.1836     7.1291     2.4436 H       
  43 H43           -0.8702     3.4480     4.0479 H       
  44 H44            0.0249     2.2599     2.0885 H       
@<TRIPOS>BOND
   1    1    2 ar
   2    1    6 ar
   3    1   31 1
   4    2    3 ar
   5    2   32 1
   6    3    4 ar
   7    3    7 1
   8    4    5 ar
   9    4   33 1
  10    5    6 ar
  11    5   34 1
  12    6   19 1
  13    7    8 2
  14    7    9 1
  15    8   27 1
  16    8   12 1
  17    9   10 2
  18    9   35 1
  19   10   11 1
  20   10   36 1
  21   11   12 1
  22   11   13 1
  23   12   15 2
  24   13   14 2
  25   13   16 1
  26   14   15 1
  27   16   18 1
  28   16   17 1
  29   16   37 1
  30   17   18 1
  31   17   38 1
  32   17   39 1
  33   18   40 1
  34   18   41 1
  35   19   20 1
  36   20   21 ar
  37   20   25 ar
  38   21   22 ar
  39   21   26 1
  40   22   23 ar
  41   22   42 1
  42   23   24 ar
  43   24   25 ar
  44   24   43 1
  45   25   44 1
  46   27   28 1
  47   27   29 1
  48   27   30 1

#	End of record

