#	Name: ASD02030468
#	Creating user name:	WinNT
#	Creation time:	15. 06. 2019 20:15

#	Modifying user name:	WinNT
#	Modification time:	15. 06. 2019 20:15

#	Program:	/corina/corina34_cracker 3.40 0067  02.08.2006

@<TRIPOS>MOLECULE
ASD02030468
  55   57    0    0    0
SMALL
NO_CHARGES


@<TRIPOS>ATOM
   1 N1             0.1835     1.1276     0.7368 N.am    
   2 C2             0.0762    -0.2548     0.2497 C.3     
   3 C3             0.7465    -0.3426    -1.1270 C.3     
   4 N4             2.0763     0.2773    -1.0423 N.am    
   5 C5             2.1836     1.6597    -0.5551 C.3     
   6 C6             1.5133     1.7475     0.8216 C.3     
   7 C7            -0.9185     1.8164     1.0942 C.2     
   8 O8            -2.0200     1.3352     0.9164 O.2     
   9 O9            -0.7988     3.0376     1.6483 O.3     
  10 C10            0.7813    -1.1992     1.2253 C.3     
  11 C11           -1.3986    -0.6436     0.1285 C.3     
  12 C12            3.1778    -0.4097    -1.4045 C.2     
  13 O13            3.1075    -1.6050    -1.6118 O.2     
  14 C14            4.4745     0.2924    -1.5498 C.ar    
  15 C15            5.6368    -0.4427    -1.7718 C.ar    
  16 C16            6.8421     0.2281    -1.9061 C.ar    
  17 C17            6.8429     1.6113    -1.8137 C.ar    
  18 C18            5.6487     2.2779    -1.5915 C.ar    
  19 N19            4.5180     1.6166    -1.4728 N.ar    
  20 C20            5.6444     3.7814    -1.4903 C.3     
  21 C21            5.9578     4.3985    -0.1258 C.3     
  22 C22            6.9865     4.4775    -1.2556 C.3     
  23 C23           -2.0281     3.7215     2.0083 C.3     
  24 C24           -2.7993     2.8811     3.0281 C.3     
  25 C25           -1.6937     5.0840     2.6188 C.3     
  26 C26           -2.8864     3.9199     0.7574 C.3     
  27 H27            0.8482    -1.3881    -1.4184 H       
  28 H28            0.1419     0.1876    -1.8628 H       
  29 H29            3.2342     1.9367    -0.4688 H       
  30 H30            1.6812     2.3325    -1.2501 H       
  31 H31            1.4116     2.7930     1.1129 H       
  32 H32            2.1179     1.2173     1.5573 H       
  33 H33            0.3129    -1.1238     2.2066 H       
  34 H34            0.7004    -2.2237     0.8619 H       
  35 H35            1.8329    -0.9231     1.3024 H       
  36 H36           -1.8975     0.0348    -0.5636 H       
  37 H37           -1.4756    -1.6648    -0.2447 H       
  38 H38           -1.8733    -0.5777     1.1074 H       
  39 H39            5.5993    -1.5200    -1.8379 H       
  40 H40            7.7599    -0.3144    -2.0785 H       
  41 H41            7.7654     2.1639    -1.9135 H       
  42 H42            4.9149     4.2928    -2.1184 H       
  43 H43            5.4348     5.3161     0.1436 H       
  44 H44            6.1671     3.7170     0.6987 H       
  45 H45            7.8726     3.8479    -1.1744 H       
  46 H46            7.1403     5.4470    -1.7294 H       
  47 H47           -2.1878     2.7398     3.9192 H       
  48 H48           -3.7221     3.3945     3.2983 H       
  49 H49           -3.0375     1.9105     2.5932 H       
  50 H50           -1.1442     5.6826     1.8923 H       
  51 H51           -2.6165     5.5973     2.8890 H       
  52 H52           -1.0822     4.9426     3.5099 H       
  53 H53           -3.1246     2.9492     0.3225 H       
  54 H54           -3.8092     4.4332     1.0277 H       
  55 H55           -2.3370     4.5185     0.0309 H       
@<TRIPOS>BOND
   1    1    2 1
   2    1    6 1
   3    1    7 am
   4    2    3 1
   5    2   10 1
   6    2   11 1
   7    3    4 1
   8    3   27 1
   9    3   28 1
  10    4    5 1
  11    4   12 am
  12    5    6 1
  13    5   29 1
  14    5   30 1
  15    6   31 1
  16    6   32 1
  17    7    8 2
  18    7    9 1
  19    9   23 1
  20   10   33 1
  21   10   34 1
  22   10   35 1
  23   11   36 1
  24   11   37 1
  25   11   38 1
  26   12   13 2
  27   12   14 1
  28   14   15 ar
  29   14   19 ar
  30   15   16 ar
  31   15   39 1
  32   16   17 ar
  33   16   40 1
  34   17   18 ar
  35   17   41 1
  36   18   19 ar
  37   18   20 1
  38   20   21 1
  39   20   22 1
  40   20   42 1
  41   21   22 1
  42   21   43 1
  43   21   44 1
  44   22   45 1
  45   22   46 1
  46   23   24 1
  47   23   26 1
  48   23   25 1
  49   24   47 1
  50   24   48 1
  51   24   49 1
  52   25   50 1
  53   25   51 1
  54   25   52 1
  55   26   53 1
  56   26   54 1
  57   26   55 1

#	End of record

