#	Name: ASD03731861
#	Creating user name:	WinNT
#	Creation time:	15. 06. 2019 20:46

#	Modifying user name:	WinNT
#	Modification time:	15. 06. 2019 20:46

#	Program:	/corina/corina34_cracker 3.40 0067  02.08.2006

@<TRIPOS>MOLECULE
ASD03731861
  37   38    0    0    0
SMALL
NO_CHARGES


@<TRIPOS>ATOM
   1 C1            -0.0592     1.4698     0.0141 C.2     
   2 C2            -0.0291    -0.0046     0.0050 C.ar    
   3 C3             1.1809    -0.6795    -0.1850 C.ar    
   4 C4             1.2059    -2.0501    -0.1925 C.ar    
   5 C5             0.0275    -2.7706    -0.0111 C.ar    
   6 C6            -1.1793    -2.1011     0.1785 C.ar    
   7 C7            -1.2096    -0.7306     0.1922 C.ar    
   8 O8             0.9688     2.0999    -0.1437 O.2     
   9 N9            -1.2269     2.1189     0.1918 N.am    
  10 S10           -1.2608     3.7745     0.2020 S.o2    
  11 O11           -2.6253     4.0957     0.4344 O.2     
  12 O12           -0.2530     4.1399     1.1349 O.2     
  13 S13            0.0635    -4.5322    -0.0219 S.3     
  14 C14            0.2355    -4.9356     1.6846 C.ar    
  15 C15            0.4179    -3.9291     2.6228 C.ar    
  16 C16            0.5525    -4.2483     3.9605 C.ar    
  17 C17            0.5061    -5.5689     4.3679 C.ar    
  18 C18            0.3251    -6.5773     3.4391 C.ar    
  19 C19            0.1831    -6.2658     2.0970 C.ar    
  20 O20           -0.0010    -7.2560     1.1832 O.3     
  21 C21           -0.7729     4.2476    -1.4799 C.3     
  22 C22           -0.0444    -8.5958     1.6783 C.3     
  23 H23            2.0947    -0.1214    -0.3261 H       
  24 H24            2.1400    -2.5718    -0.3396 H       
  25 H25           -2.0913    -2.6623     0.3189 H       
  26 H26           -2.1448    -0.2121     0.3436 H       
  27 H27           -2.0476     1.6163     0.3137 H       
  28 H28            0.4549    -2.8969     2.3074 H       
  29 H29            0.6948    -3.4643     4.6897 H       
  30 H30            0.6118    -5.8136     5.4146 H       
  31 H31            0.2900    -7.6076     3.7608 H       
  32 H32           -1.4822     3.8305    -2.1948 H       
  33 H33           -0.7681     5.3343    -1.5647 H       
  34 H34            0.2246     3.8623    -1.6908 H       
  35 H35            0.8960    -8.8292     2.1776 H       
  36 H36           -0.8665    -8.6949     2.3871 H       
  37 H37           -0.1956    -9.2853     0.8477 H       
@<TRIPOS>BOND
   1    1    2 1
   2    1    8 2
   3    1    9 am
   4    2    3 ar
   5    2    7 ar
   6    3    4 ar
   7    3   23 1
   8    4    5 ar
   9    4   24 1
  10    5    6 ar
  11    5   13 1
  12    6    7 ar
  13    6   25 1
  14    7   26 1
  15    9   10 am
  16    9   27 1
  17   10   11 2
  18   10   12 2
  19   10   21 1
  20   13   14 1
  21   14   15 ar
  22   14   19 ar
  23   15   16 ar
  24   15   28 1
  25   16   17 ar
  26   16   29 1
  27   17   18 ar
  28   17   30 1
  29   18   19 ar
  30   18   31 1
  31   19   20 1
  32   20   22 1
  33   21   32 1
  34   21   33 1
  35   21   34 1
  36   22   35 1
  37   22   36 1
  38   22   37 1

#	End of record

