#	Name: ASD01915136
#	Creating user name:	WinNT
#	Creation time:	15. 06. 2019 20:04

#	Modifying user name:	WinNT
#	Modification time:	15. 06. 2019 20:04

#	Program:	/corina/corina34_cracker 3.40 0067  02.08.2006

@<TRIPOS>MOLECULE
ASD01915136
  44   47    0    0    0
SMALL
NO_CHARGES


@<TRIPOS>ATOM
   1 C1            -0.0167     1.3795     0.0096 C.ar    
   2 C2             0.0021    -0.0041     0.0020 C.ar    
   3 C3             1.2320    -0.6497    -0.0132 C.ar    
   4 C4             2.3901     0.1036    -0.0202 C.ar    
   5 N5             2.3390     1.4222    -0.0126 N.ar    
   6 C6             1.1874     2.0721     0.0018 C.ar    
   7 O7             1.1819     3.4290     0.0092 O.3     
   8 C8             2.4525     4.0830     0.0006 C.3     
   9 C9             2.2490     5.5762     0.0105 C.2     
  10 C10            1.0148     6.2397     0.0315 C.2     
  11 N11            3.1966     6.4846     0.0068 N.2     
  12 C12            1.3272     7.5695     0.0310 C.2     
  13 C13            0.4819     8.7727     0.0522 C.2     
  14 N14            2.7019     7.6600     0.0266 N.pl3   
  15 C15            3.3772     8.9629     0.0605 C.3     
  16 C16            2.4968    10.0047    -0.6282 C.3     
  17 N17            1.1094     9.9525    -0.1731 N.am    
  18 O18           -0.7150     8.7122     0.2601 O.2     
  19 C19            3.6167     9.3766     1.5139 C.3     
  20 Cl20           1.3129    -2.3838    -0.0227 Cl      
  21 C21            0.4174    11.1428     0.0385 C.ar    
  22 C22            0.4482    11.7557     1.2837 C.ar    
  23 C23           -0.2383    12.9353     1.4913 C.ar    
  24 C24           -0.9621    13.5159     0.4625 C.ar    
  25 C25           -1.0043    12.9219    -0.7804 C.ar    
  26 C26           -0.3095    11.7313    -1.0075 C.ar    
  27 C27           -0.3439    11.1122    -2.2983 C.1     
  28 N28           -0.3712    10.6210    -3.3223 N.1     
  29 H29           -0.9552     1.9140     0.0170 H       
  30 H30           -0.9183    -0.5690     0.0081 H       
  31 H31            3.3492    -0.3929    -0.0317 H       
  32 H32            3.0191     3.7876     0.8836 H       
  33 H33            3.0021     3.7972    -0.8962 H       
  34 H34            0.0303     5.7959     0.0451 H       
  35 H35            4.3320     8.8916    -0.4604 H       
  36 H36            2.8979    10.9970    -0.4218 H       
  37 H37            2.5233     9.8328    -1.7042 H       
  38 H38            4.2414     8.6310     2.0057 H       
  39 H39            4.1181    10.3441     1.5383 H       
  40 H40            2.6610     9.4495     2.0331 H       
  41 H41            1.0096    11.3091     2.0911 H       
  42 H42           -0.2112    13.4083     2.4619 H       
  43 H43           -1.4963    14.4385     0.6355 H       
  44 H44           -1.5700    13.3785    -1.5790 H       
@<TRIPOS>BOND
   1    1    2 ar
   2    1    6 ar
   3    1   29 1
   4    2    3 ar
   5    2   30 1
   6    3    4 ar
   7    3   20 1
   8    4    5 ar
   9    4   31 1
  10    5    6 ar
  11    6    7 1
  12    7    8 1
  13    8    9 1
  14    8   32 1
  15    8   33 1
  16    9   11 2
  17    9   10 1
  18   10   12 2
  19   10   34 1
  20   11   14 1
  21   12   14 1
  22   12   13 1
  23   13   17 am
  24   13   18 2
  25   14   15 1
  26   15   16 1
  27   15   19 1
  28   15   35 1
  29   16   17 1
  30   16   36 1
  31   16   37 1
  32   17   21 1
  33   19   38 1
  34   19   39 1
  35   19   40 1
  36   21   22 ar
  37   21   26 ar
  38   22   23 ar
  39   22   41 1
  40   23   24 ar
  41   23   42 1
  42   24   25 ar
  43   24   43 1
  44   25   26 ar
  45   25   44 1
  46   26   27 1
  47   27   28 3

#	End of record

