#	Name: ASD01810926
#	Creating user name:	WinNT
#	Creation time:	15. 06. 2019 19:25

#	Modifying user name:	WinNT
#	Modification time:	15. 06. 2019 19:25

#	Program:	/corina/corina34_cracker 3.40 0067  02.08.2006

@<TRIPOS>MOLECULE
ASD01810926
  35   36    0    0    0
SMALL
NO_CHARGES


@<TRIPOS>ATOM
   1 C1            -0.0180     1.4732     0.0101 C.2     
   2 C2             0.0021    -0.0041     0.0020 C.ar    
   3 C3             1.2207    -0.6879    -0.0133 C.ar    
   4 C4             1.2413    -2.0682    -0.0209 C.ar    
   5 C5             0.0597    -2.7829    -0.0136 C.ar    
   6 C6            -1.1659    -2.1123     0.0018 C.ar    
   7 C7            -1.1940    -0.7187     0.0154 C.ar    
   8 O8             1.0256     2.0948     0.0035 O.2     
   9 O9            -1.1936     2.1309     0.0193 O.3     
  10 C10            2.5154     0.0833    -0.0220 C.3     
  11 C11            2.8116     0.5667    -1.4431 C.3     
  12 C12            0.0923    -4.2895    -0.0225 C.3     
  13 C13            0.7981    -4.8831    -1.2531 C.3     
  14 C14            1.4138    -5.9220    -0.3010 C.3     
  15 C15            1.2316    -4.8860     0.8208 C.3     
  16 C16           -2.3903    -2.8549     0.0094 C.1     
  17 N17           -3.3616    -3.4441     0.0155 N.1     
  18 C18           -1.1373     3.5817     0.0269 C.3     
  19 H19            2.1860    -2.5915    -0.0331 H       
  20 H20           -2.1386    -0.1953     0.0317 H       
  21 H21            2.4312     0.9422     0.6438 H       
  22 H22            3.3251    -0.5622     0.3184 H       
  23 H23            3.7480     1.1245    -1.4493 H       
  24 H24            2.8959    -0.2922    -2.1088 H       
  25 H25            2.0019     1.2122    -1.7834 H       
  26 H26           -0.8817    -4.7351     0.1795 H       
  27 H27            0.1133    -5.3126    -1.9843 H       
  28 H28            1.5316    -4.2129    -1.7013 H       
  29 H29            0.8017    -6.8150    -0.1744 H       
  30 H30            2.4570    -6.1502    -0.5194 H       
  31 H31            2.0836    -4.2166     0.9395 H       
  32 H32            0.8967    -5.3180     1.7638 H       
  33 H33           -0.6055     3.9200     0.9162 H       
  34 H34           -0.6140     3.9297    -0.8637 H       
  35 H35           -2.1500     3.9846     0.0339 H       
@<TRIPOS>BOND
   1    1    2 1
   2    1    8 2
   3    1    9 1
   4    2    3 ar
   5    2    7 ar
   6    3    4 ar
   7    3   10 1
   8    4    5 ar
   9    4   19 1
  10    5    6 ar
  11    5   12 1
  12    6    7 ar
  13    6   16 1
  14    7   20 1
  15    9   18 1
  16   10   11 1
  17   10   21 1
  18   10   22 1
  19   11   23 1
  20   11   24 1
  21   11   25 1
  22   12   13 1
  23   12   15 1
  24   12   26 1
  25   13   14 1
  26   13   27 1
  27   13   28 1
  28   14   15 1
  29   14   29 1
  30   14   30 1
  31   15   31 1
  32   15   32 1
  33   16   17 3
  34   18   33 1
  35   18   34 1
  36   18   35 1

#	End of record

