#	Name: ASD08150516
#	Creating user name:	WinNT
#	Creation time:	15. 06. 2019 21:16

#	Modifying user name:	WinNT
#	Modification time:	15. 06. 2019 21:16

#	Program:	/corina/corina34_cracker 3.40 0067  02.08.2006

@<TRIPOS>MOLECULE
ASD08150516
  28   29    0    0    0
SMALL
NO_CHARGES


@<TRIPOS>ATOM
   1 C1            -0.2037     1.2281     0.0805 C.2     
   2 C2             0.2339    -0.1770    -0.0036 C.ar    
   3 C3             1.5941    -0.4847    -0.1638 C.ar    
   4 C4             1.9941    -1.8126    -0.2418 C.ar    
   5 C5             1.0574    -2.8229    -0.1620 C.ar    
   6 C6            -0.2868    -2.5228    -0.0037 C.ar    
   7 C7            -0.7020    -1.2108     0.0815 C.ar    
   8 O8             0.6214     2.1209     0.1153 O.2     
   9 N9            -1.5182     1.5238     0.1133 N.am    
  10 C10           -1.9332     2.8495     0.2800 C.ar    
  11 C11           -3.0846     3.1331     1.0054 C.ar    
  12 C12           -3.4909     4.4437     1.1682 C.ar    
  13 C13           -2.7533     5.4721     0.6103 C.ar    
  14 C14           -1.6077     5.1928    -0.1116 C.ar    
  15 C15           -1.1928     3.8850    -0.2738 C.ar    
  16 Cl16          -4.0111     1.8425     1.7052 Cl      
  17 Br17          -1.5563    -3.9201     0.1038 Br      
  18 N18            2.5355     0.5338    -0.2445 N.pl3   
  19 H19            3.0393    -2.0547    -0.3655 H       
  20 H20            1.3735    -3.8537    -0.2235 H       
  21 H21           -1.7498    -0.9825     0.2092 H       
  22 H22           -2.1767     0.8174     0.0214 H       
  23 H23           -4.3855     4.6653     1.7312 H       
  24 H24           -3.0730     6.4957     0.7387 H       
  25 H25           -1.0343     5.9983    -0.5461 H       
  26 H26           -0.2955     3.6683    -0.8344 H       
  27 H27            2.2471     1.4595    -0.2736 H       
  28 H28            3.4811     0.3193    -0.2717 H       
@<TRIPOS>BOND
   1    1    2 1
   2    1    8 2
   3    1    9 am
   4    2    3 ar
   5    2    7 ar
   6    3    4 ar
   7    3   18 1
   8    4    5 ar
   9    4   19 1
  10    5    6 ar
  11    5   20 1
  12    6    7 ar
  13    6   17 1
  14    7   21 1
  15    9   10 1
  16    9   22 1
  17   10   11 ar
  18   10   15 ar
  19   11   12 ar
  20   11   16 1
  21   12   13 ar
  22   12   23 1
  23   13   14 ar
  24   13   24 1
  25   14   15 ar
  26   14   25 1
  27   15   26 1
  28   18   27 1
  29   18   28 1

#	End of record

