#	Name: ASD01900168
#	Creating user name:	WinNT
#	Creation time:	15. 06. 2019 19:51

#	Modifying user name:	WinNT
#	Modification time:	15. 06. 2019 19:51

#	Program:	/corina/corina34_cracker 3.40 0067  02.08.2006

@<TRIPOS>MOLECULE
ASD01900168
  30   33    0    0    0
SMALL
NO_CHARGES


@<TRIPOS>ATOM
   1 N1            -0.0168     1.3872     0.0097 N.pl3   
   2 C2             0.0707    -0.0014    -0.0079 C.ar    
   3 C3            -1.0860    -0.7664     0.1036 C.ar    
   4 C4            -0.9845    -2.1457     0.0842 C.ar    
   5 C5             0.2751    -2.7158    -0.0464 C.ar    
   6 C6             1.3806    -1.8960    -0.1524 C.ar    
   7 N7             1.2534    -0.5827    -0.1359 N.ar    
   8 N8             2.3468     1.6904     0.0946 N.2     
   9 C9             1.1385     2.1550     0.0111 C.2     
  10 S10            1.1926     3.9116    -0.1005 S.3     
  11 C11            2.9470     3.8684    -0.0264 C.2     
  12 C12            3.8941     5.0369    -0.0858 C.3     
  13 C13            5.1610     4.7881     0.7324 C.3     
  14 C14            5.6728     3.3898     0.5097 C.2     
  15 N15            6.8817     2.9234     0.5397 N.2     
  16 N16            6.8359     1.5433     0.2830 N.pl3   
  17 C17            5.5411     1.1896     0.0891 C.2     
  18 C18            4.8039     2.3026     0.2143 C.2     
  19 C19            3.3370     2.5644     0.0878 C.2     
  20 H20           -0.8857     1.8184     0.0168 H       
  21 H21           -2.0499    -0.2898     0.2042 H       
  22 H22           -1.8650    -2.7653     0.1691 H       
  23 H23            0.3885    -3.7897    -0.0646 H       
  24 H24            2.3621    -2.3351    -0.2541 H       
  25 H25            4.1722     5.2154    -1.1245 H       
  26 H26            3.3898     5.9221     0.3018 H       
  27 H27            5.9277     5.5029     0.4332 H       
  28 H28            4.9375     4.9243     1.7905 H       
  29 H29            7.5993     0.9458     0.2500 H       
  30 H30            5.1728     0.1974    -0.1262 H       
@<TRIPOS>BOND
   1    1    2 1
   2    1    9 1
   3    1   20 1
   4    2    3 ar
   5    2    7 ar
   6    3    4 ar
   7    3   21 1
   8    4    5 ar
   9    4   22 1
  10    5    6 ar
  11    5   23 1
  12    6    7 ar
  13    6   24 1
  14    8    9 2
  15    8   19 1
  16    9   10 1
  17   10   11 1
  18   11   12 1
  19   11   19 2
  20   12   13 1
  21   12   25 1
  22   12   26 1
  23   13   14 1
  24   13   27 1
  25   13   28 1
  26   14   15 2
  27   14   18 1
  28   15   16 1
  29   16   17 1
  30   16   29 1
  31   17   18 2
  32   17   30 1
  33   18   19 1

#	End of record

