#	Name: ASD01882343
#	Creating user name:	WinNT
#	Creation time:	15. 06. 2019 19:44

#	Modifying user name:	WinNT
#	Modification time:	15. 06. 2019 19:44

#	Program:	/corina/corina34_cracker 3.40 0067  02.08.2006

@<TRIPOS>MOLECULE
ASD01882343
  52   55    0    0    0
SMALL
NO_CHARGES


@<TRIPOS>ATOM
   1 C1             1.6550     1.3970     1.0690 C.2     
   2 C2             1.7662    -0.0014     0.9876 C.2     
   3 C3             1.2585    -0.6481    -0.1064 C.2     
   4 C4             0.6346     0.0983    -1.1298 C.2     
   5 C5             0.5390     1.4386    -1.0311 C.2     
   6 N6             1.0419     2.0929     0.0555 N.pl3   
   7 N7             1.6947     3.4670     1.5806 N.2     
   8 N8             2.0295     2.2886     1.9739 N.2     
   9 C9             1.0915     3.4056     0.4228 C.2     
  10 C10            2.4364    -0.7792     2.0908 C.3     
  11 F11            3.7866    -0.9658     1.7759 F       
  12 F12            2.3314    -0.0695     3.2919 F       
  13 F13            1.8132    -2.0241     2.2287 F       
  14 N14            1.3570    -2.0324    -0.2098 N.pl3   
  15 C15            2.6677    -2.6812    -0.3502 C.3     
  16 C16            2.6392    -3.5883    -1.5843 C.3     
  17 C17            1.4646    -4.5627    -1.4693 C.3     
  18 C18            0.1519    -3.7778    -1.4163 C.3     
  19 C19            0.1526    -2.8732    -0.1746 C.3     
  20 O20            1.4542    -5.4318    -2.6035 O.3     
  21 C21            0.9535    -6.6792    -2.4190 C.ar    
  22 C22            0.9166    -7.5702    -3.4842 C.ar    
  23 C23            0.4039    -8.8396    -3.2827 C.ar    
  24 C24           -0.0562    -9.1746    -2.0164 C.ar    
  25 C25            0.0111    -8.2385    -1.0040 C.ar    
  26 N26            0.5102    -7.0372    -1.2256 N.ar    
  27 C27            0.5482     4.5718    -0.3619 C.3     
  28 O28           -0.8090     4.8098     0.0168 O.3     
  29 C29           -1.4219     5.9012    -0.6726 C.3     
  30 C30           -2.8649     6.0632    -0.1903 C.3     
  31 H31            0.2327    -0.4072    -1.9954 H       
  32 H32            0.0602     2.0003    -1.8195 H       
  33 H33            3.4401    -1.9219    -0.4726 H       
  34 H34            2.8768    -3.2783     0.5374 H       
  35 H35            2.5204    -2.9796    -2.4807 H       
  36 H36            3.5721    -4.1488    -1.6456 H       
  37 H37            1.5711    -5.1540    -0.5598 H       
  38 H38            0.0565    -3.1673    -2.3142 H       
  39 H39           -0.6856    -4.4731    -1.3579 H       
  40 H40            0.1608    -3.4856     0.7271 H       
  41 H41           -0.7350    -2.2406    -0.1811 H       
  42 H42            1.2829    -7.2760    -4.4567 H       
  43 H43            0.3623    -9.5534    -4.0922 H       
  44 H44           -0.4626   -10.1568    -1.8255 H       
  45 H45           -0.3455    -8.4940    -0.0171 H       
  46 H46            1.1448     5.4598    -0.1531 H       
  47 H47            0.5938     4.3456    -1.4273 H       
  48 H48           -0.8662     6.8168    -0.4702 H       
  49 H49           -1.4172     5.7027    -1.7443 H       
  50 H50           -3.4206     5.1476    -0.3927 H       
  51 H51           -2.8696     6.2618     0.8814 H       
  52 H52           -3.3324     6.8957    -0.7161 H       
@<TRIPOS>BOND
   1    1    2 1
   2    1    6 1
   3    1    8 2
   4    2    3 2
   5    2   10 1
   6    3    4 1
   7    3   14 1
   8    4    5 2
   9    4   31 1
  10    5    6 1
  11    5   32 1
  12    6    9 1
  13    7    8 1
  14    7    9 2
  15    9   27 1
  16   10   11 1
  17   10   12 1
  18   10   13 1
  19   14   15 1
  20   14   19 1
  21   15   16 1
  22   15   33 1
  23   15   34 1
  24   16   17 1
  25   16   35 1
  26   16   36 1
  27   17   18 1
  28   17   20 1
  29   17   37 1
  30   18   19 1
  31   18   38 1
  32   18   39 1
  33   19   40 1
  34   19   41 1
  35   20   21 1
  36   21   22 ar
  37   21   26 ar
  38   22   23 ar
  39   22   42 1
  40   23   24 ar
  41   23   43 1
  42   24   25 ar
  43   24   44 1
  44   25   26 ar
  45   25   45 1
  46   27   28 1
  47   27   46 1
  48   27   47 1
  49   28   29 1
  50   29   30 1
  51   29   48 1
  52   29   49 1
  53   30   50 1
  54   30   51 1
  55   30   52 1

#	End of record

