#	Name: ASD05720271
#	Creating user name:	WinNT
#	Creation time:	15. 06. 2019 21:02

#	Modifying user name:	WinNT
#	Modification time:	15. 06. 2019 21:02

#	Program:	/corina/corina34_cracker 3.40 0067  02.08.2006

@<TRIPOS>MOLECULE
ASD05720271
  78   82    0    0    0
SMALL
NO_CHARGES


@<TRIPOS>ATOM
   1 C1             0.5119     1.0237     1.1164 C.2     
   2 N2             0.4122    -0.2391     0.6808 N.am    
   3 C3             1.6580    -0.6134    -0.0049 C.3     
   4 C4             2.5297     0.6535     0.0955 C.3     
   5 N5             1.6824     1.6071     0.8270 N.am    
   6 O6            -0.3811     1.5906     1.7157 O.2     
   7 C7             2.0587     2.9775     1.1828 C.3     
   8 C8             2.7352     2.9807     2.5551 C.3     
   9 N9             2.2420     6.6292     3.4730 N.3     
  10 C10            1.8661     5.2607     3.0959 C.3     
  11 C11            3.1282     4.4119     2.9266 C.3     
  12 C12            3.9109     4.4018     4.2426 C.3     
  13 C13            4.2481     5.8422     4.6379 C.3     
  14 C14            2.9535     6.6496     4.7575 C.3     
  15 C15            1.3817    -0.9606    -1.4691 C.3     
  16 C16            0.5224    -2.2245    -1.5401 C.3     
  17 C17            0.6397     0.1988    -2.1369 C.3     
  18 C18           -1.6778    -3.1433     0.6617 C.2     
  19 N19           -0.6243    -2.3357     0.5053 N.2     
  20 C20           -0.6921    -1.0636     0.8499 C.2     
  21 C21           -1.8851    -0.5415     1.3900 C.2     
  22 C22           -2.9530    -1.3558     1.5497 C.2     
  23 N23           -2.8523    -2.6692     1.1834 N.pl3   
  24 N24           -3.7636    -3.7303     1.2267 N.2     
  25 C25           -3.1914    -4.8116     0.7573 C.2     
  26 C26           -1.8788    -4.5014     0.3811 C.2     
  27 C27           -0.8882    -5.4341    -0.2016 C.ar    
  28 C28           -0.6489    -6.6680     0.4062 C.ar    
  29 C29            0.2725    -7.5353    -0.1368 C.ar    
  30 C30            0.9670    -7.1812    -1.2934 C.ar    
  31 C31            0.7285    -5.9487    -1.9011 C.ar    
  32 C32           -0.1968    -5.0827    -1.3625 C.ar    
  33 N33            3.4781    -9.0331    -3.1490 N.pl3   
  34 N34            2.6749    -7.8969    -2.9593 N.2     
  35 C35            1.9599    -8.1156    -1.8770 C.2     
  36 N36            2.2776    -9.3227    -1.3893 N.2     
  37 C37            3.1866    -9.8797    -2.1451 C.2     
  38 H38            2.1383    -1.4495     0.5036 H       
  39 H39            3.4427     0.4464     0.6537 H       
  40 H40            2.7656     1.0352    -0.8979 H       
  41 H41            2.7493     3.3700     0.4364 H       
  42 H42            1.1662     3.6023     1.2162 H       
  43 H43            2.0446     2.5881     3.3015 H       
  44 H44            3.6277     2.3559     2.5217 H       
  45 H45            2.7916     7.0660     2.7483 H       
  46 H46            1.2394     4.8282     3.8758 H       
  47 H47            1.3138     5.2817     2.1564 H       
  48 H48            3.7485     4.8356     2.1369 H       
  49 H49            3.3048     3.9423     5.0234 H       
  50 H50            4.8324     3.8342     4.1140 H       
  51 H51            4.7682     5.8445     5.5958 H       
  52 H52            4.8864     6.2888     3.8755 H       
  53 H53            3.1910     7.6792     5.0248 H       
  54 H54            2.3217     6.2105     5.5296 H       
  55 H55            2.3257    -1.1336    -1.9859 H       
  56 H56           -0.4947    -1.9904    -1.2258 H       
  57 H57            0.5093    -2.5979    -2.5641 H       
  58 H58            0.9403    -2.9855    -0.8812 H       
  59 H59           -0.3043     0.3718    -1.6201 H       
  60 H60            1.2519     1.0992    -2.0863 H       
  61 H61            0.4428    -0.0485    -3.1801 H       
  62 H62           -1.9455     0.4988     1.6739 H       
  63 H63           -3.8748    -0.9730     1.9622 H       
  64 H64           -3.6570    -5.7823     0.6714 H       
  65 H65           -1.1861    -6.9420     1.3021 H       
  66 H66            0.4577    -8.4899     0.3333 H       
  67 H67            1.2666    -5.6751    -2.7966 H       
  68 H68           -0.3844    -4.1301    -1.8354 H       
  69 H69            4.1151    -9.1803    -3.8656 H       
  70 H70            3.6281   -10.8531    -1.9903 H       
  71 C71           11.0578    14.6675    11.7426 C.2     
  72 C72           11.0782    13.1606    11.7343 C.3     
  73 O73           12.0959    15.2858    11.7360 O.2     
  74 O74            9.8864    15.3227    11.7517 O.3     
  75 F75           12.4034    12.7123    11.7192 F       
  76 F76           10.4361    12.6792    12.8802 F       
  77 F77           10.4143    12.6915    10.5958 F       
  78 H78            9.9239    16.2890    11.7568 H       
@<TRIPOS>BOND
   1    1    2 am
   2    1    5 am
   3    1    6 2
   4    2    3 1
   5    2   20 1
   6    3    4 1
   7    3   15 1
   8    3   38 1
   9    4    5 1
  10    4   39 1
  11    4   40 1
  12    5    7 1
  13    7    8 1
  14    7   41 1
  15    7   42 1
  16    8   11 1
  17    8   43 1
  18    8   44 1
  19    9   10 1
  20    9   14 1
  21    9   45 1
  22   10   11 1
  23   10   46 1
  24   10   47 1
  25   11   12 1
  26   11   48 1
  27   12   13 1
  28   12   49 1
  29   12   50 1
  30   13   14 1
  31   13   51 1
  32   13   52 1
  33   14   53 1
  34   14   54 1
  35   15   16 1
  36   15   17 1
  37   15   55 1
  38   16   56 1
  39   16   57 1
  40   16   58 1
  41   17   59 1
  42   17   60 1
  43   17   61 1
  44   18   19 1
  45   18   23 1
  46   18   26 2
  47   19   20 2
  48   20   21 1
  49   21   22 2
  50   21   62 1
  51   22   23 1
  52   22   63 1
  53   23   24 1
  54   24   25 2
  55   25   26 1
  56   25   64 1
  57   26   27 1
  58   27   28 ar
  59   27   32 ar
  60   28   29 ar
  61   28   65 1
  62   29   30 ar
  63   29   66 1
  64   30   31 ar
  65   30   35 1
  66   31   32 ar
  67   31   67 1
  68   32   68 1
  69   33   34 1
  70   33   37 1
  71   33   69 1
  72   34   35 2
  73   35   36 1
  74   36   37 2
  75   37   70 1
  76   71   72 1
  77   71   73 2
  78   71   74 1
  79   72   75 1
  80   72   76 1
  81   72   77 1
  82   74   78 1

#	End of record

