#	Name: ASD01910527
#	Creating user name:	WinNT
#	Creation time:	15. 06. 2019 19:56

#	Modifying user name:	WinNT
#	Modification time:	15. 06. 2019 19:56

#	Program:	/corina/corina34_cracker 3.40 0067  02.08.2006

@<TRIPOS>MOLECULE
ASD01910527
  47   51    0    0    0
SMALL
NO_CHARGES


@<TRIPOS>ATOM
   1 O1             0.3025    -0.0611     0.2902 O.3     
   2 C2             0.2832    -1.1992    -0.4232 C.2     
   3 N3             1.5353    -1.4455    -0.7757 N.2     
   4 C4             2.2583    -0.4417    -0.2576 C.2     
   5 N5             1.4404     0.3511     0.3704 N.2     
   6 C6            -0.8982    -2.0130    -0.7486 C.2     
   7 C7            -2.1735    -1.7350    -0.3722 C.2     
   8 C8            -3.0077    -2.7591    -0.8847 C.ar    
   9 C9            -2.1750    -3.6565    -1.5807 C.ar    
  10 N10           -0.8879    -3.1773    -1.4898 N.pl3   
  11 C11            4.0503     1.0637    -1.0831 C.3     
  12 C12            3.7498    -0.2642    -0.3809 C.3     
  13 C13            4.3799    -0.2532     1.0138 C.3     
  14 C14            5.8980    -0.1059     0.8883 C.3     
  15 C15            6.2229     1.2238     0.2005 C.3     
  16 N16            5.5032     1.2825    -1.0791 N.am    
  17 C17            6.1632     1.5324    -2.2273 C.2     
  18 C18            7.5986     1.8657    -2.1948 C.2     
  19 O19            5.5744     1.4828    -3.2902 O.2     
  20 C20            8.3301     2.6744    -1.2074 C.2     
  21 N21            9.5656     2.6764    -1.6123 N.2     
  22 O22            9.7159     2.0413    -2.6272 O.3     
  23 C23            8.5844     1.4930    -3.0757 C.2     
  24 C24            8.4195     0.6433    -4.3093 C.3     
  25 C25           -4.3857    -3.0006    -0.8189 C.ar    
  26 C26           -4.9117    -4.1023    -1.4289 C.ar    
  27 C27           -4.0925    -4.9892    -2.1157 C.ar    
  28 C28           -2.7346    -4.7729    -2.1947 C.ar    
  29 H29           -2.4941    -0.8857     0.2128 H       
  30 H30           -0.1018    -3.5932    -1.8772 H       
  31 H31            3.6897     1.0233    -2.1110 H       
  32 H32            3.5567     1.8777    -0.5523 H       
  33 H33            4.1671    -1.0861    -0.9627 H       
  34 H34            3.9799     0.5837     1.5863 H       
  35 H35            4.1466    -1.1872     1.5250 H       
  36 H36            6.3482    -0.1216     1.8809 H       
  37 H37            6.2956    -0.9292     0.2949 H       
  38 H38            5.9065     2.0508     0.8360 H       
  39 H39            7.2958     1.2890     0.0196 H       
  40 H40            7.9268     3.1624    -0.3324 H       
  41 H41            9.3836     0.5323    -4.8056 H       
  42 H42            8.0414    -0.3390    -4.0260 H       
  43 H43            7.7141     1.1220    -4.9886 H       
  44 H44           -5.0303    -2.3169    -0.2865 H       
  45 H45           -5.9746    -4.2865    -1.3768 H       
  46 H46           -4.5245    -5.8567    -2.5923 H       
  47 H47           -2.1058    -5.4680    -2.7313 H       
@<TRIPOS>BOND
   1    1    2 1
   2    1    5 1
   3    2    3 2
   4    2    6 1
   5    3    4 1
   6    4    5 2
   7    4   12 1
   8    6    7 2
   9    6   10 1
  10    7    8 1
  11    7   29 1
  12    8    9 ar
  13    8   25 ar
  14    9   10 1
  15    9   28 ar
  16   10   30 1
  17   11   12 1
  18   11   16 1
  19   11   31 1
  20   11   32 1
  21   12   13 1
  22   12   33 1
  23   13   14 1
  24   13   34 1
  25   13   35 1
  26   14   15 1
  27   14   36 1
  28   14   37 1
  29   15   16 1
  30   15   38 1
  31   15   39 1
  32   16   17 am
  33   17   18 1
  34   17   19 2
  35   18   20 1
  36   18   23 2
  37   20   21 2
  38   20   40 1
  39   21   22 1
  40   22   23 1
  41   23   24 1
  42   24   41 1
  43   24   42 1
  44   24   43 1
  45   25   26 ar
  46   25   44 1
  47   26   27 ar
  48   26   45 1
  49   27   28 ar
  50   27   46 1
  51   28   47 1

#	End of record

