#	Name: ASD09116471
#	Creating user name:	WinNT
#	Creation time:	15. 06. 2019 21:21

#	Modifying user name:	WinNT
#	Modification time:	15. 06. 2019 21:21

#	Program:	/corina/corina34_cracker 3.40 0067  02.08.2006

@<TRIPOS>MOLECULE
ASD09116471
  66   71    0    0    0
SMALL
NO_CHARGES


@<TRIPOS>ATOM
   1 N1            -0.0290     1.4172     0.1393 N.2     
   2 N2            -0.0197     0.0177     0.2542 N.pl3   
   3 C3             1.2228     1.8072     0.1104 C.2     
   4 N4             2.0164     0.7334     0.2007 N.2     
   5 C5             1.2814    -0.3545     0.2882 C.2     
   6 N6             1.7543    -1.6486     0.3953 N.pl3   
   7 C7            -1.1321    -0.8233     0.3205 C.ar    
   8 N8             1.6572     3.1284     0.0026 N.pl3   
   9 C9             3.0178     3.4257     0.0966 C.ar    
  10 C10            3.5369     4.5229    -0.5820 C.ar    
  11 C11            3.8505     2.6274     0.8733 C.ar    
  12 C12            5.1940     2.9183     0.9681 C.ar    
  13 C13            5.7191     4.0158     0.2833 C.ar    
  14 C14            4.8797     4.8185    -0.4915 C.ar    
  15 N15           -1.0302    -2.0876    -0.0614 N.ar    
  16 N16           -2.0256    -2.9005    -0.0294 N.ar    
  17 C17           -3.2209    -2.5175     0.3898 C.ar    
  18 C18           -3.4177    -1.2064     0.8327 C.ar    
  19 C19           -2.3514    -0.3330     0.7950 C.ar    
  20 C20           -4.3824    -3.4368     0.3768 C.ar    
  21 C21           -5.5797    -3.0030    -0.1946 C.ar    
  22 C22           -5.6433    -1.6409    -0.8294 C.3     
  23 C23           -5.7414    -0.5400     0.2232 C.3     
  24 C24           -4.7594    -0.7933     1.3639 C.3     
  25 C25           -4.2950    -4.7115     0.9254 C.ar    
  26 C26           -5.4031    -5.5364     0.9181 C.ar    
  27 C27           -6.5937    -5.0949     0.3700 C.ar    
  28 C28           -6.6823    -3.8300    -0.1850 C.ar    
  29 C29            7.1591     4.3307     0.3832 C.2     
  30 C30            7.6566     5.3736    -0.2678 C.2     
  31 C31            9.1254     5.6948    -0.1659 C.3     
  32 N32            9.7064     5.7627    -1.5135 N.3     
  33 C33           11.0769     6.3049    -1.4713 C.3     
  34 C34           12.0029     5.2583    -2.1260 C.3     
  35 C35           11.0299     4.4356    -3.0109 C.3     
  36 C36            9.7487     4.4244    -2.1403 C.3     
  37 H37            2.7095    -1.8162     0.4108 H       
  38 H38            1.1309    -2.3894     0.4549 H       
  39 H39            1.0137     3.8406    -0.1377 H       
  40 H40            2.8870     5.1436    -1.1809 H       
  41 H41            3.4436     1.7787     1.4031 H       
  42 H42            5.8401     2.2982     1.5717 H       
  43 H43            5.2831     5.6680    -1.0226 H       
  44 H44           -2.4567     0.6938     1.1128 H       
  45 H45           -4.7454    -1.4838    -1.4271 H       
  46 H46           -6.5165    -1.5911    -1.4799 H       
  47 H47           -5.5139     0.4203    -0.2396 H       
  48 H48           -6.7556    -0.5141     0.6218 H       
  49 H49           -5.1502    -1.5839     2.0044 H       
  50 H50           -4.6475     0.1191     1.9497 H       
  51 H51           -3.3654    -5.0551     1.3546 H       
  52 H52           -5.3394    -6.5281     1.3410 H       
  53 H53           -7.4591    -5.7410     0.3748 H       
  54 H54           -7.6154    -3.4910    -0.6103 H       
  55 H55            7.8067     3.7117     0.9864 H       
  56 H56            7.0090     5.9927    -0.8710 H       
  57 H57            9.2536     6.6550     0.3338 H       
  58 H58            9.6286     4.9165     0.4079 H       
  59 H59           11.1228     7.2407    -2.0282 H       
  60 H60           11.3782     6.4712    -0.4370 H       
  61 H61           12.7625     5.7450    -2.7379 H       
  62 H62           12.4645     4.6247    -1.3686 H       
  63 H63           10.8507     4.9353    -3.9629 H       
  64 H64           11.4047     3.4241    -3.1671 H       
  65 H65            9.8157     3.6496    -1.3765 H       
  66 H66            8.8679     4.2691    -2.7633 H       
@<TRIPOS>BOND
   1    1    2 1
   2    1    3 2
   3    2    7 1
   4    2    5 1
   5    3    4 1
   6    3    8 1
   7    4    5 2
   8    5    6 1
   9    6   37 1
  10    6   38 1
  11    7   15 ar
  12    7   19 ar
  13    8    9 1
  14    8   39 1
  15    9   10 ar
  16    9   11 ar
  17   10   14 ar
  18   10   40 1
  19   11   12 ar
  20   11   41 1
  21   12   13 ar
  22   12   42 1
  23   13   14 ar
  24   13   29 1
  25   14   43 1
  26   15   16 ar
  27   16   17 ar
  28   17   18 ar
  29   17   20 1
  30   18   19 ar
  31   18   24 1
  32   19   44 1
  33   20   21 ar
  34   20   25 ar
  35   21   22 1
  36   21   28 ar
  37   22   23 1
  38   22   45 1
  39   22   46 1
  40   23   24 1
  41   23   47 1
  42   23   48 1
  43   24   49 1
  44   24   50 1
  45   25   26 ar
  46   25   51 1
  47   26   27 ar
  48   26   52 1
  49   27   28 ar
  50   27   53 1
  51   28   54 1
  52   29   30 2
  53   29   55 1
  54   30   31 1
  55   30   56 1
  56   31   32 1
  57   31   57 1
  58   31   58 1
  59   32   33 1
  60   32   36 1
  61   33   34 1
  62   33   59 1
  63   33   60 1
  64   34   35 1
  65   34   61 1
  66   34   62 1
  67   35   36 1
  68   35   63 1
  69   35   64 1
  70   36   65 1
  71   36   66 1

#	End of record

