#	Name: ASD01883596
#	Creating user name:	WinNT
#	Creation time:	15. 06. 2019 19:46

#	Modifying user name:	WinNT
#	Modification time:	15. 06. 2019 19:46

#	Program:	/corina/corina34_cracker 3.40 0067  02.08.2006

@<TRIPOS>MOLECULE
ASD01883596
  45   48    0    0    0
SMALL
NO_CHARGES


@<TRIPOS>ATOM
   1 C1            -2.0657     2.1200     0.1323 C.2     
   2 C2            -2.5175     0.8543     0.2567 C.2     
   3 N3            -1.7190    -0.1282     0.7521 N.am    
   4 C4            -0.4542     0.1280     1.1339 C.2     
   5 C5             0.0650     1.4264     1.0256 C.2     
   6 C6            -0.7433     2.4349     0.5206 C.2     
   7 O7             0.2428    -0.7718     1.5761 O.2     
   8 Cl8            1.6949     1.7669     1.5166 Cl      
   9 C9            -0.2298     3.8177     0.3915 C.ar    
  10 C10           -0.0857     4.3950    -0.8707 C.ar    
  11 C11            0.3928     5.6842    -0.9870 C.ar    
  12 C12            0.7312     6.4067     0.1525 C.ar    
  13 C13            0.5883     5.8335     1.4093 C.ar    
  14 C14            0.1055     4.5483     1.5321 C.ar    
  15 O15            1.2028     7.6752     0.0357 O.3     
  16 C16            1.6232     8.3050     1.1620 C.ar    
  17 C17            2.9421     8.1904     1.5944 C.ar    
  18 C18            3.3304     8.8461     2.7447 C.ar    
  19 N19            2.4700     9.5734     3.4316 N.ar    
  20 C20            1.2123     9.7062     3.0542 C.ar    
  21 C21            0.7479     9.0873     1.9121 C.ar    
  22 C22           -2.2449    -1.4903     0.8727 C.3     
  23 C23           -1.9657    -2.2611    -0.4191 C.3     
  24 C24            0.2735    10.5496     3.8777 C.3     
  25 C25           -2.3351    -3.7455    -0.4499 C.3     
  26 C26           -3.1710    -2.7327    -1.2349 C.3     
  27 F27            0.5330     6.2447    -2.2082 F       
  28 H28           -2.7107     2.8887    -0.2668 H       
  29 H29           -3.5285     0.6186    -0.0413 H       
  30 H30           -0.3479     3.8335    -1.7553 H       
  31 H31            0.8522     6.3970     2.2920 H       
  32 H32           -0.0051     4.1039     2.5102 H       
  33 H33            3.6512     7.5961     1.0371 H       
  34 H34            4.3513     8.7628     3.0873 H       
  35 H35           -0.2825     9.2000     1.6089 H       
  36 H36           -1.7598    -1.9943     1.7087 H       
  37 H37           -3.3202    -1.4504     1.0469 H       
  38 H38           -1.0758    -1.9524    -0.9677 H       
  39 H39            0.3012    11.5789     3.5201 H       
  40 H40           -0.7404    10.1602     3.7856 H       
  41 H41            0.5805    10.5198     4.9231 H       
  42 H42           -1.6885    -4.4133    -1.0191 H       
  43 H43           -2.7770    -4.1729     0.4502 H       
  44 H44           -4.1629    -2.4938    -0.8513 H       
  45 H45           -3.0744    -2.7342    -2.3206 H       
@<TRIPOS>BOND
   1    1    2 2
   2    1    6 1
   3    1   28 1
   4    2    3 1
   5    2   29 1
   6    3    4 am
   7    3   22 1
   8    4    5 1
   9    4    7 2
  10    5    6 2
  11    5    8 1
  12    6    9 1
  13    9   10 ar
  14    9   14 ar
  15   10   11 ar
  16   10   30 1
  17   11   12 ar
  18   11   27 1
  19   12   13 ar
  20   12   15 1
  21   13   14 ar
  22   13   31 1
  23   14   32 1
  24   15   16 1
  25   16   17 ar
  26   16   21 ar
  27   17   18 ar
  28   17   33 1
  29   18   19 ar
  30   18   34 1
  31   19   20 ar
  32   20   21 ar
  33   20   24 1
  34   21   35 1
  35   22   23 1
  36   22   36 1
  37   22   37 1
  38   23   25 1
  39   23   26 1
  40   23   38 1
  41   24   39 1
  42   24   40 1
  43   24   41 1
  44   25   26 1
  45   25   42 1
  46   25   43 1
  47   26   44 1
  48   26   45 1

#	End of record

