#	Name: ASD05720232
#	Creating user name:	WinNT
#	Creation time:	15. 06. 2019 21:02

#	Modifying user name:	WinNT
#	Modification time:	15. 06. 2019 21:02

#	Program:	/corina/corina34_cracker 3.40 0067  02.08.2006

@<TRIPOS>MOLECULE
ASD05720232
 105  109    0    0    0
SMALL
NO_CHARGES


@<TRIPOS>ATOM
   1 N1            -0.8623    -0.9104    -0.0656 N.am    
   2 C2            -0.5862    -2.3520    -0.1330 C.3     
   3 C3             0.3439    -2.7305     1.0239 C.3     
   4 C4             1.5937    -1.8483     0.9780 C.3     
   5 C5             1.1908    -0.3811     1.1424 C.3     
   6 C6             0.2703     0.0241    -0.0132 C.3     
   7 C7            -2.1303    -0.4538    -0.0576 C.2     
   8 O8            -3.0583    -1.2367    -0.1064 O.2     
   9 O9            -2.3687     0.8698     0.0045 O.3     
  10 C10            2.5409    -2.2469     2.1115 C.3     
  11 N11            3.7908    -1.4838     1.9963 N.3     
  12 C12            4.7267    -1.8411     3.0707 C.3     
  13 C13            6.0136    -1.0279     2.9175 C.3     
  14 C14            6.9377    -1.3071     4.1045 C.3     
  15 C15            7.2785    -2.7981     4.1459 C.3     
  16 N16            5.6872     0.3998     2.8779 N.pl3   
  17 C17            8.4904     1.6933     1.0767 C.2     
  18 N18            7.6535     0.8484     1.6872 N.2     
  19 C19            6.5428     1.2878     2.2504 C.2     
  20 C20            6.2282     2.6625     2.2120 C.2     
  21 C21            7.0730     3.5188     1.5951 C.2     
  22 N22            8.2155     3.0336     1.0211 N.pl3   
  23 N23            9.2585     3.6591     0.3287 N.2     
  24 C24           10.1404     2.7594    -0.0306 C.2     
  25 C25            9.7125     1.5030     0.4173 C.2     
  26 C26           10.4177     0.2162     0.2286 C.ar    
  27 C27           10.8683    -0.1534    -1.0407 C.ar    
  28 C28           11.5239    -1.3504    -1.2166 C.ar    
  29 C29           11.7392    -2.1958    -0.1253 C.ar    
  30 C30           11.2887    -1.8257     1.1444 C.ar    
  31 C31           10.6378    -0.6261     1.3207 C.ar    
  32 C32           12.4426    -3.4814    -0.3140 C.2     
  33 N33           12.9928    -4.2050     0.6365 N.2     
  34 C34           13.5370    -5.3022     0.0969 C.2     
  35 C35           13.3249    -5.2721    -1.2342 C.2     
  36 N36           12.6275    -4.1242    -1.5036 N.pl3   
  37 C37           12.1696    -3.6712    -2.8194 C.3     
  38 O38           12.4381    -4.6834    -3.7917 O.3     
  39 C39           12.0278    -4.3400    -5.1168 C.3     
  40 C40           12.3625    -5.4903    -6.0685 C.3     
  41 Si41          11.8275    -5.0426    -7.7960 Si      
  42 C42           12.7221    -3.5030    -8.3438 C.3     
  43 C43           12.2351    -6.4432    -8.9549 C.3     
  44 C44            9.9904    -4.7339    -7.8168 C.3     
  45 C45            8.2245    -0.4938     3.9513 C.3     
  46 C46           -3.7587     1.2897     0.0093 C.3     
  47 C47           -4.4695     0.6866     1.2226 C.3     
  48 C48           -3.8300     2.8163     0.0832 C.3     
  49 C49           -4.4412     0.8088    -1.2727 C.3     
  50 H50           -1.5202    -2.9073    -0.0476 H       
  51 H51           -0.1040    -2.5877    -1.0817 H       
  52 H52           -0.1735    -2.5792     1.9712 H       
  53 H53            0.6338    -3.7771     0.9302 H       
  54 H54            2.0972    -1.9815     0.0205 H       
  55 H55            0.6653    -0.2519     2.0886 H       
  56 H56            2.0833     0.2445     1.1330 H       
  57 H57            0.8223    -0.0179    -0.9521 H       
  58 H58           -0.0987     1.0365     0.1513 H       
  59 H59            2.0705    -2.0311     3.0708 H       
  60 H60            2.7585    -3.3129     2.0452 H       
  61 H61            4.2133    -1.6167     1.0897 H       
  62 H62            4.2715    -1.6225     4.0367 H       
  63 H63            4.9595    -2.9043     3.0110 H       
  64 H64            6.5149    -1.3118     1.9922 H       
  65 H65            6.4364    -1.0232     5.0298 H       
  66 H66            7.7798    -3.0820     3.2205 H       
  67 H67            7.9368    -2.9970     4.9915 H       
  68 H68            6.3617    -3.3774     4.2550 H       
  69 H69            4.8714     0.7224     3.2916 H       
  70 H70            5.3210     3.0272     2.6706 H       
  71 H71            6.8480     4.5743     1.5558 H       
  72 H72           11.0500     2.9549    -0.5790 H       
  73 H73           10.7019     0.5001    -1.8843 H       
  74 H74           11.8717    -1.6366    -2.1983 H       
  75 H75           11.4550    -2.4790     1.9881 H       
  76 H76           10.2935    -0.3379     2.3029 H       
  77 H77           14.0579    -6.0796     0.6362 H       
  78 H78           13.6420    -6.0142    -1.9519 H       
  79 H79           11.0977    -3.4767    -2.7840 H       
  80 H80           12.6959    -2.7565    -3.0923 H       
  81 H81           10.9529    -4.1594    -5.1290 H       
  82 H82           12.5512    -3.4392    -5.4373 H       
  83 H83           13.4373    -5.6709    -6.0563 H       
  84 H84           11.8391    -6.3911    -5.7480 H       
  85 H85           13.7970    -3.6836    -8.3316 H       
  86 H86           12.4091    -3.2411    -9.3545 H       
  87 H87           12.4837    -2.6836    -7.6658 H       
  88 H88           11.7116    -7.3440    -8.6344 H       
  89 H89           11.9221    -6.1813    -9.9656 H       
  90 H90           13.3099    -6.6238    -8.9427 H       
  91 H91            9.7519    -3.9145    -7.1388 H       
  92 H92            9.6774    -4.4720    -8.8275 H       
  93 H93            9.4670    -5.6347    -7.4963 H       
  94 H94            7.9817     0.5684     3.9219 H       
  95 H95            8.8829    -0.6927     4.7970 H       
  96 H96            8.7258    -0.7777     3.0260 H       
  97 H97           -3.9832     1.0293     2.1360 H       
  98 H98           -5.5129     1.0018     1.2262 H       
  99 H99           -4.4186    -0.4009     1.1699 H       
 100 H100          -3.3237     3.2459    -0.7811 H       
 101 H101          -4.8735     3.1315     0.0869 H       
 102 H102          -3.3438     3.1589     0.9966 H       
 103 H103          -4.3904    -0.2788    -1.3254 H       
 104 H104          -5.4846     1.1240    -1.2691 H       
 105 H105          -3.9348     1.2384    -2.1371 H       
@<TRIPOS>BOND
   1    1    2 1
   2    1    6 1
   3    1    7 am
   4    2    3 1
   5    2   50 1
   6    2   51 1
   7    3    4 1
   8    3   52 1
   9    3   53 1
  10    4    5 1
  11    4   10 1
  12    4   54 1
  13    5    6 1
  14    5   55 1
  15    5   56 1
  16    6   57 1
  17    6   58 1
  18    7    8 2
  19    7    9 1
  20    9   46 1
  21   10   11 1
  22   10   59 1
  23   10   60 1
  24   11   12 1
  25   11   61 1
  26   12   13 1
  27   12   62 1
  28   12   63 1
  29   13   14 1
  30   13   16 1
  31   13   64 1
  32   14   15 1
  33   14   45 1
  34   14   65 1
  35   15   66 1
  36   15   67 1
  37   15   68 1
  38   16   19 1
  39   16   69 1
  40   17   18 1
  41   17   22 1
  42   17   25 2
  43   18   19 2
  44   19   20 1
  45   20   21 2
  46   20   70 1
  47   21   22 1
  48   21   71 1
  49   22   23 1
  50   23   24 2
  51   24   25 1
  52   24   72 1
  53   25   26 1
  54   26   27 ar
  55   26   31 ar
  56   27   28 ar
  57   27   73 1
  58   28   29 ar
  59   28   74 1
  60   29   30 ar
  61   29   32 1
  62   30   31 ar
  63   30   75 1
  64   31   76 1
  65   32   33 2
  66   32   36 1
  67   33   34 1
  68   34   35 2
  69   34   77 1
  70   35   36 1
  71   35   78 1
  72   36   37 1
  73   37   38 1
  74   37   79 1
  75   37   80 1
  76   38   39 1
  77   39   40 1
  78   39   81 1
  79   39   82 1
  80   40   41 1
  81   40   83 1
  82   40   84 1
  83   41   42 1
  84   41   43 1
  85   41   44 1
  86   42   85 1
  87   42   86 1
  88   42   87 1
  89   43   88 1
  90   43   89 1
  91   43   90 1
  92   44   91 1
  93   44   92 1
  94   44   93 1
  95   45   94 1
  96   45   95 1
  97   45   96 1
  98   46   47 1
  99   46   49 1
 100   46   48 1
 101   47   97 1
 102   47   98 1
 103   47   99 1
 104   48  100 1
 105   48  101 1
 106   48  102 1
 107   49  103 1
 108   49  104 1
 109   49  105 1

#	End of record

