#	Name: ASD01883989
#	Creating user name:	WinNT
#	Creation time:	15. 06. 2019 19:47

#	Modifying user name:	WinNT
#	Modification time:	15. 06. 2019 19:47

#	Program:	/corina/corina34_cracker 3.40 0067  02.08.2006

@<TRIPOS>MOLECULE
ASD01883989
  47   49    0    0    0
SMALL
NO_CHARGES


@<TRIPOS>ATOM
   1 C1            -0.0187     1.5258     0.0104 C.3     
   2 C2             0.0021    -0.0041     0.0020 C.3     
   3 C3            -1.4333    -0.5336     0.0129 C.3     
   4 N4            -1.4134    -1.9985     0.0048 N.am    
   5 C5            -1.4100    -2.6992    -1.2743 C.3     
   6 C6            -0.4794    -3.9121    -1.2742 C.3     
   7 N7            -0.7039    -4.6920    -0.0571 N.pl3   
   8 C8            -1.1223    -4.1102     1.1219 C.2     
   9 N9            -1.2159    -5.0332     2.0384 N.2     
  10 C10           -0.8881    -6.2131     1.5141 C.2     
  11 Cl11          -0.8708    -7.7316     2.3553 Cl      
  12 C12           -0.5637    -6.0188     0.1809 C.2     
  13 C13           -0.1481    -7.0529    -0.7886 C.ar    
  14 C14           -0.6942    -7.0676    -2.0740 C.ar    
  15 C15           -0.3034    -8.0338    -2.9756 C.ar    
  16 C16            0.6320    -8.9923    -2.6074 C.ar    
  17 O17            1.0146    -9.9430    -3.4991 O.3     
  18 C18            1.9802   -10.8982    -3.0549 C.3     
  19 C19            2.2841   -11.8808    -4.1876 C.3     
  20 O20            2.9101   -11.1844    -5.2671 O.3     
  21 C21            3.2376   -12.0154    -6.3826 C.3     
  22 C22            1.1776    -8.9813    -1.3301 C.ar    
  23 C23            0.7964    -8.0151    -0.4243 C.ar    
  24 C24           -1.3932    -2.6615     1.1845 C.2     
  25 O25           -1.5920    -2.0935     2.2417 O.2     
  26 H26            1.0039     1.9031     0.0027 H       
  27 H27           -0.5459     1.8868    -0.8726 H       
  28 H28           -0.5289     1.8773     0.9072 H       
  29 H29            0.5123    -0.3556    -0.8948 H       
  30 H30            0.5293    -0.3651     0.8851 H       
  31 H31           -1.9435    -0.1821     0.9097 H       
  32 H32           -1.9605    -0.1726    -0.8702 H       
  33 H33           -2.4237    -3.0325    -1.4966 H       
  34 H34           -1.0890    -2.0085    -2.0540 H       
  35 H35           -0.6879    -4.5311    -2.1468 H       
  36 H36            0.5570    -3.5758    -1.3049 H       
  37 H37           -1.4221    -6.3231    -2.3608 H       
  38 H38           -0.7252    -8.0459    -3.9697 H       
  39 H39            2.8957   -10.3819    -2.7663 H       
  40 H40            1.5846   -11.4429    -2.1977 H       
  41 H41            2.9521   -12.6608    -3.8224 H       
  42 H42            1.3551   -12.3319    -4.5363 H       
  43 H43            3.7088   -11.4124    -7.1588 H       
  44 H44            3.9254   -12.7982    -6.0629 H       
  45 H45            2.3284   -12.4693    -6.7768 H       
  46 H46            1.9046    -9.7284    -1.0478 H       
  47 H47            1.2245    -8.0045     0.5672 H       
@<TRIPOS>BOND
   1    1    2 1
   2    1   26 1
   3    1   27 1
   4    1   28 1
   5    2    3 1
   6    2   29 1
   7    2   30 1
   8    3    4 1
   9    3   31 1
  10    3   32 1
  11    4   24 am
  12    4    5 1
  13    5    6 1
  14    5   33 1
  15    5   34 1
  16    6    7 1
  17    6   35 1
  18    6   36 1
  19    7   12 1
  20    7    8 1
  21    8    9 2
  22    8   24 1
  23    9   10 1
  24   10   11 1
  25   10   12 2
  26   12   13 1
  27   13   23 ar
  28   13   14 ar
  29   14   15 ar
  30   14   37 1
  31   15   16 ar
  32   15   38 1
  33   16   17 1
  34   16   22 ar
  35   17   18 1
  36   18   19 1
  37   18   39 1
  38   18   40 1
  39   19   20 1
  40   19   41 1
  41   19   42 1
  42   20   21 1
  43   21   43 1
  44   21   44 1
  45   21   45 1
  46   22   23 ar
  47   22   46 1
  48   23   47 1
  49   24   25 2

#	End of record

