#	Name: ASD09116032
#	Creating user name:	WinNT
#	Creation time:	15. 06. 2019 21:20

#	Modifying user name:	WinNT
#	Modification time:	15. 06. 2019 21:20

#	Program:	/corina/corina34_cracker 3.40 0067  02.08.2006

@<TRIPOS>MOLECULE
ASD09116032
  89   96    0    0    0
SMALL
NO_CHARGES


@<TRIPOS>ATOM
   1 C1            -0.1673     1.3971     0.3392 C.ar    
   2 C2            -0.1273     0.0068     0.2677 C.ar    
   3 C3            -1.3053    -0.6984     0.3166 C.ar    
   4 N4            -2.4454    -0.0159     0.4317 N.ar    
   5 N5            -2.4858     1.2657     0.4982 N.ar    
   6 C6            -1.3873     2.0255     0.4624 C.ar    
   7 N7            -1.3089    -2.0930     0.2471 N.pl3   
   8 N8            -0.1895    -2.9320     0.1257 N.2     
   9 C9            -0.6364    -4.1647     0.0963 C.2     
  10 N10           -1.9710    -4.1471     0.1922 N.2     
  11 C11           -2.3919    -2.9041     0.2894 C.2     
  12 N12            0.1524    -5.3098    -0.0167 N.pl3   
  13 C13           -0.4347    -6.5745     0.0744 C.ar    
  14 C14            0.1162    -7.6487    -0.6135 C.ar    
  15 C15           -1.5674    -6.7612     0.8577 C.ar    
  16 C16           -2.1402    -8.0169     0.9405 C.ar    
  17 C17           -1.5971    -9.0737     0.2562 C.ar    
  18 C18           -0.4653    -8.8984    -0.5220 C.ar    
  19 N19           -3.7077    -2.4980     0.4050 N.pl3   
  20 C20            1.1926     2.0463     0.2746 C.3     
  21 C21            2.0312     1.4734     1.4304 C.3     
  22 C22            2.0751    -0.0527     1.3526 C.3     
  23 C23            1.2680    -0.5525     0.1418 C.3     
  24 C24            1.8563     1.5944    -1.0378 C.3     
  25 C25            1.9007     0.0683    -1.1157 C.3     
  26 C26           -1.4792     3.5028     0.5419 C.ar    
  27 C27           -2.3689     4.1968    -0.2842 C.ar    
  28 C28           -2.4485     5.5780    -0.2026 C.ar    
  29 C29           -1.6511     6.2657     0.6921 C.ar    
  30 C30           -0.7693     5.5817     1.5107 C.ar    
  31 C31           -0.6836     4.2062     1.4443 C.ar    
  32 C32           -3.3758    -8.2173     1.7935 C.3     
  33 C33           -2.9863    -9.0368     3.0262 C.3     
  34 C34           -3.0360   -10.5221     2.7271 C.3     
  35 C35           -1.9761   -11.0015     1.7550 C.3     
  36 C36           -2.2302   -10.4467     0.3510 C.3     
  37 N37           -2.8774   -11.2571     3.9891 N.3     
  38 C38           -3.0363   -12.7078     3.7792 C.3     
  39 C39           -1.7487   -13.3875     4.2907 C.3     
  40 C40           -1.1707   -12.3415     5.2800 C.3     
  41 C41           -1.5459   -11.0103     4.5823 C.3     
  42 O42           -3.1519     3.5197    -1.1636 O.3     
  43 C43           -4.0365     4.2951    -1.9749 C.3     
  44 C44           -4.8305     3.3659    -2.8954 C.3     
  45 C45            0.0961     6.3417     2.4827 C.3     
  46 H46            1.1085    -5.2280    -0.1586 H       
  47 H47            0.9986    -7.5065    -1.2198 H       
  48 H48           -1.9971    -5.9310     1.3985 H       
  49 H49           -0.0414    -9.7343    -1.0587 H       
  50 H50           -4.4192    -3.1571     0.4196 H       
  51 H51           -3.9198    -1.5538     0.4715 H       
  52 H52            1.1161     3.1315     0.3419 H       
  53 H53            3.0459     1.8667     1.3689 H       
  54 H54            1.5884     1.7733     2.3802 H       
  55 H55            3.1105    -0.3790     1.2550 H       
  56 H56            1.6526    -0.4724     2.2655 H       
  57 H57            1.2547    -1.6416     0.0980 H       
  58 H58            1.2862     1.9819    -1.8821 H       
  59 H59            2.8721     1.9872    -1.0819 H       
  60 H60            2.9375    -0.2585    -1.1963 H       
  61 H61            1.3517    -0.2637    -1.9968 H       
  62 H62           -3.1341     6.1175    -0.8392 H       
  63 H63           -1.7161     7.3420     0.7527 H       
  64 H64            0.0057     3.6759     2.0847 H       
  65 H65           -3.7662    -7.2487     2.1059 H       
  66 H66           -4.1329    -8.7535     1.2213 H       
  67 H67           -1.9754    -8.7665     3.3313 H       
  68 H68           -3.6770    -8.8118     3.8388 H       
  69 H69           -4.0165   -10.7590     2.3141 H       
  70 H70           -0.9971   -10.6690     2.0999 H       
  71 H71           -1.9908   -12.0908     1.7177 H       
  72 H72           -3.3033   -10.3683     0.1767 H       
  73 H73           -1.7829   -11.1083    -0.3909 H       
  74 H74           -3.8962   -13.0719     4.3414 H       
  75 H75           -3.1691   -12.9166     2.7176 H       
  76 H76           -1.9833   -14.3181     4.8074 H       
  77 H77           -1.0546   -13.5658     3.4694 H       
  78 H78           -1.6506   -12.4198     6.2555 H       
  79 H79           -0.0893   -12.4443     5.3692 H       
  80 H80           -0.8215   -10.7728     3.8033 H       
  81 H81           -1.5993   -10.2017     5.3113 H       
  82 H82           -4.7247     4.8483    -1.3358 H       
  83 H83           -3.4575     4.9952    -2.5772 H       
  84 H84           -5.5053     3.9573    -3.5143 H       
  85 H85           -4.1423     2.8127    -3.5345 H       
  86 H86           -5.4095     2.6658    -2.2932 H       
  87 H87           -0.4265     6.4405     3.4341 H       
  88 H88            1.0307     5.8021     2.6358 H       
  89 H89            0.3100     7.3322     2.0811 H       
@<TRIPOS>BOND
   1    1    2 ar
   2    1   20 1
   3    1    6 ar
   4    2    3 ar
   5    2   23 1
   6    3    4 ar
   7    3    7 1
   8    4    5 ar
   9    5    6 ar
  10    6   26 1
  11    7    8 1
  12    7   11 1
  13    8    9 2
  14    9   10 1
  15    9   12 1
  16   10   11 2
  17   11   19 1
  18   12   13 1
  19   12   46 1
  20   13   14 ar
  21   13   15 ar
  22   14   18 ar
  23   14   47 1
  24   15   16 ar
  25   15   48 1
  26   16   17 ar
  27   16   32 1
  28   17   18 ar
  29   17   36 1
  30   18   49 1
  31   19   50 1
  32   19   51 1
  33   20   21 1
  34   20   24 1
  35   20   52 1
  36   21   22 1
  37   21   53 1
  38   21   54 1
  39   22   23 1
  40   22   55 1
  41   22   56 1
  42   23   25 1
  43   23   57 1
  44   24   25 1
  45   24   58 1
  46   24   59 1
  47   25   60 1
  48   25   61 1
  49   26   27 ar
  50   26   31 ar
  51   27   28 ar
  52   27   42 1
  53   28   29 ar
  54   28   62 1
  55   29   30 ar
  56   29   63 1
  57   30   31 ar
  58   30   45 1
  59   31   64 1
  60   32   33 1
  61   32   65 1
  62   32   66 1
  63   33   34 1
  64   33   67 1
  65   33   68 1
  66   34   35 1
  67   34   37 1
  68   34   69 1
  69   35   36 1
  70   35   70 1
  71   35   71 1
  72   36   72 1
  73   36   73 1
  74   37   38 1
  75   37   41 1
  76   38   39 1
  77   38   74 1
  78   38   75 1
  79   39   40 1
  80   39   76 1
  81   39   77 1
  82   40   41 1
  83   40   78 1
  84   40   79 1
  85   41   80 1
  86   41   81 1
  87   42   43 1
  88   43   44 1
  89   43   82 1
  90   43   83 1
  91   44   84 1
  92   44   85 1
  93   44   86 1
  94   45   87 1
  95   45   88 1
  96   45   89 1

#	End of record

