#	Name: ASD04170035
#	Creating user name:	WinNT
#	Creation time:	15. 06. 2019 20:48

#	Modifying user name:	WinNT
#	Modification time:	15. 06. 2019 20:48

#	Program:	/corina/corina34_cracker 3.40 0067  02.08.2006

@<TRIPOS>MOLECULE
ASD04170035
  42   44    0    0    0
SMALL
NO_CHARGES


@<TRIPOS>ATOM
   1 O1             0.0487     0.0477     0.7055 O.2     
   2 C2             0.0176     1.2469     0.5094 C.2     
   3 C3             1.2707     1.9851     0.2435 C.ar    
   4 C4             1.2564     3.3771     0.1441 C.ar    
   5 C5             2.4293     4.0600    -0.1042 C.ar    
   6 C6             3.6176     3.3679    -0.2547 C.ar    
   7 C7             3.6386     1.9877    -0.1578 C.ar    
   8 C8             2.4742     1.2933     0.0963 C.ar    
   9 C9             2.4989    -0.2098     0.2015 C.3     
  10 C10            4.9377     1.2420    -0.3236 C.3     
  11 N11           -1.1597     1.9026     0.5287 N.am    
  12 C12           -2.4020     1.1701     0.7862 C.3     
  13 C13           -2.6179     1.0412     2.2958 C.3     
  14 N14           -3.8767     1.6848     2.6791 N.4     
  15 C15           -5.0104     1.0359     2.0164 C.3     
  16 C16           -4.8739     1.1653     0.4976 C.3     
  17 C17           -3.5855     1.9360     0.1805 C.3     
  18 C18           -3.6671     3.3122     0.8541 C.3     
  19 C19           -3.8426     3.1143     2.3614 C.3     
  20 H20            0.3292     3.9185     0.2610 H       
  21 H21            2.4196     5.1372    -0.1817 H       
  22 H22            4.5330     3.9072    -0.4490 H       
  23 H23            2.5640    -0.4996     1.2503 H       
  24 H24            1.5868    -0.6194    -0.2326 H       
  25 H25            3.3636    -0.5976    -0.3370 H       
  26 H26            5.4221     1.1358     0.6471 H       
  27 H27            4.7392     0.2547    -0.7406 H       
  28 H28            5.5914     1.7962    -0.9971 H       
  29 H29           -1.1845     2.8596     0.3722 H       
  30 H30           -2.3399     0.1775     0.3401 H       
  31 H31           -2.6537    -0.0138     2.5673 H       
  32 H32           -1.7920     1.5204     2.8215 H       
  33 H33           -3.9930     1.5896     3.6769 H       
  34 H34           -5.0330    -0.0193     2.2888 H       
  35 H35           -5.9374     1.5106     2.3379 H       
  36 H36           -4.8256     0.1729     0.0493 H       
  37 H37           -5.7313     1.7072     0.0987 H       
  38 H38           -3.4598     2.0341    -0.8978 H       
  39 H39           -2.7488     3.8674     0.6630 H       
  40 H40           -4.5191     3.8636     0.4565 H       
  41 H41           -4.7758     3.5782     2.6809 H       
  42 H42           -3.0099     3.5818     2.8869 H       
@<TRIPOS>BOND
   1    1    2 2
   2    2    3 1
   3    2   11 am
   4    3    4 ar
   5    3    8 ar
   6    4    5 ar
   7    4   20 1
   8    5    6 ar
   9    5   21 1
  10    6    7 ar
  11    6   22 1
  12    7    8 ar
  13    7   10 1
  14    8    9 1
  15    9   23 1
  16    9   24 1
  17    9   25 1
  18   10   26 1
  19   10   27 1
  20   10   28 1
  21   11   12 1
  22   11   29 1
  23   12   13 1
  24   12   17 1
  25   12   30 1
  26   13   14 1
  27   13   31 1
  28   13   32 1
  29   14   15 1
  30   14   19 1
  31   14   33 1
  32   15   16 1
  33   15   34 1
  34   15   35 1
  35   16   17 1
  36   16   36 1
  37   16   37 1
  38   17   18 1
  39   17   38 1
  40   18   19 1
  41   18   39 1
  42   18   40 1
  43   19   41 1
  44   19   42 1

#	End of record

