#	Name: ASD04590026
#	Creating user name:	WinNT
#	Creation time:	15. 06. 2019 20:50

#	Modifying user name:	WinNT
#	Modification time:	15. 06. 2019 20:50

#	Program:	/corina/corina34_cracker 3.40 0067  02.08.2006

@<TRIPOS>MOLECULE
ASD04590026
  40   42    0    0    0
SMALL
NO_CHARGES


@<TRIPOS>ATOM
   1 N1            -0.0768     1.2682    -0.0495 N.pl3   
   2 N2            -0.0362    -0.0145     0.0019 N.2     
   3 C3             1.1929    -0.4417    -0.2149 C.2     
   4 C4             2.0014     0.7057    -0.4235 C.2     
   5 C5             1.1590     1.7667    -0.3103 C.2     
   6 C6             1.6420    -1.8463    -0.2361 C.2     
   7 O7             2.8104    -2.1080    -0.4485 O.2     
   8 N8             0.7574    -2.8400    -0.0200 N.am    
   9 C9             1.1621    -4.1747    -0.1363 C.ar    
  10 C10            2.4401    -4.5505     0.2561 C.ar    
  11 C11            2.8374    -5.8682     0.1404 C.ar    
  12 C12            1.9624    -6.8143    -0.3663 C.ar    
  13 C13            0.6876    -6.4417    -0.7582 C.ar    
  14 C14            0.2843    -5.1262    -0.6389 C.ar    
  15 F15            2.3532    -8.1026    -0.4790 F       
  16 N16            3.3789     0.7382    -0.6902 N.am    
  17 C17            4.0037     1.9195    -0.8650 C.2     
  18 O18            3.3755     2.9546    -0.7918 O.2     
  19 C19            5.4828     1.9544    -1.1513 C.3     
  20 C20            5.9313     3.3851    -1.3037 C.ar    
  21 C21            6.3631     4.0954    -0.1992 C.ar    
  22 C22            6.7745     5.4077    -0.3389 C.ar    
  23 C23            6.7545     6.0095    -1.5832 C.ar    
  24 C24            6.3236     5.2989    -2.6879 C.ar    
  25 C25            5.9163     3.9852    -2.5488 C.ar    
  26 H26           -0.8759     1.8036     0.0759 H       
  27 H27            1.4228     2.8093    -0.4098 H       
  28 H28           -0.1597    -2.6300     0.2161 H       
  29 H29            3.1229    -3.8129     0.6510 H       
  30 H30            3.8313    -6.1608     0.4452 H       
  31 H31            0.0069    -7.1811    -1.1535 H       
  32 H32           -0.7116    -4.8368    -0.9405 H       
  33 H33            3.8812    -0.0895    -0.7487 H       
  34 H34            6.0236     1.4900    -0.3267 H       
  35 H35            5.6875     1.4094    -2.0728 H       
  36 H36            6.3787     3.6252     0.7730 H       
  37 H37            7.1111     5.9629     0.5241 H       
  38 H38            7.0753     7.0350    -1.6923 H       
  39 H39            6.3077     5.7692    -3.6600 H       
  40 H40            5.5832     3.4289    -3.4125 H       
@<TRIPOS>BOND
   1    1    2 1
   2    1    5 1
   3    1   26 1
   4    2    3 2
   5    3    4 1
   6    3    6 1
   7    4    5 2
   8    4   16 1
   9    5   27 1
  10    6    7 2
  11    6    8 am
  12    8    9 1
  13    8   28 1
  14    9   10 ar
  15    9   14 ar
  16   10   11 ar
  17   10   29 1
  18   11   12 ar
  19   11   30 1
  20   12   13 ar
  21   12   15 1
  22   13   14 ar
  23   13   31 1
  24   14   32 1
  25   16   17 am
  26   16   33 1
  27   17   18 2
  28   17   19 1
  29   19   20 1
  30   19   34 1
  31   19   35 1
  32   20   21 ar
  33   20   25 ar
  34   21   22 ar
  35   21   36 1
  36   22   23 ar
  37   22   37 1
  38   23   24 ar
  39   23   38 1
  40   24   25 ar
  41   24   39 1
  42   25   40 1

#	End of record

