#	Name: ASD03090767
#	Creating user name:	WinNT
#	Creation time:	15. 06. 2019 20:29

#	Modifying user name:	WinNT
#	Modification time:	15. 06. 2019 20:29

#	Program:	/corina/corina34_cracker 3.40 0067  02.08.2006

@<TRIPOS>MOLECULE
ASD03090767
  40   42    0    0    0
SMALL
NO_CHARGES


@<TRIPOS>ATOM
   1 O1            -0.0173     1.4248     0.0099 O.3     
   2 C2             0.0021    -0.0041     0.0020 C.3     
   3 C3            -1.4333    -0.5336     0.0129 C.3     
   4 C4            -2.1977     0.0633    -1.1405 C.ar    
   5 C5            -2.3901    -0.6708    -2.2960 C.ar    
   6 C6            -3.0913    -0.1232    -3.3540 C.ar    
   7 C7            -3.6004     1.1583    -3.2565 C.ar    
   8 C8            -3.4088     1.8920    -2.1007 C.ar    
   9 C9            -2.7114     1.3428    -1.0410 C.ar    
  10 N10           -2.0815    -0.1618     1.2729 N.am    
  11 C11           -1.9250    -0.9355     2.3653 C.2     
  12 O12           -1.2475    -1.9397     2.3051 O.2     
  13 C13           -2.5917    -0.5530     3.6615 C.3     
  14 C14           -3.7322    -1.4434     4.1590 C.3     
  15 C15           -2.3754    -1.4720     4.8654 C.3     
  16 C16           -2.2850    -0.8282     6.2250 C.ar    
  17 C17           -1.1403    -0.9772     6.9856 C.ar    
  18 C18           -1.0574    -0.3867     8.2327 C.ar    
  19 C19           -2.1190     0.3532     8.7190 C.ar    
  20 C20           -3.2633     0.5029     7.9580 C.ar    
  21 C21           -3.3445    -0.0840     6.7091 C.ar    
  22 H22            0.8606     1.8301     0.0037 H       
  23 H23            0.5123    -0.3556    -0.8948 H       
  24 H24            0.5293    -0.3651     0.8851 H       
  25 H25           -1.4207    -1.6194    -0.0826 H       
  26 H26           -1.9924    -1.6720    -2.3722 H       
  27 H27           -3.2410    -0.6964    -4.2570 H       
  28 H28           -4.1476     1.5863    -4.0833 H       
  29 H29           -3.8063     2.8933    -2.0246 H       
  30 H30           -2.5616     1.9160    -0.1380 H       
  31 H31           -2.6233     0.6413     1.3211 H       
  32 H32           -2.6689     0.5174     3.8525 H       
  33 H33           -4.5595    -0.9588     4.6776 H       
  34 H34           -4.0002    -2.3058     3.5487 H       
  35 H35           -1.7507    -2.3534     4.7199 H       
  36 H36           -0.3110    -1.5553     6.6056 H       
  37 H37           -0.1634    -0.5037     8.8272 H       
  38 H38           -2.0545     0.8139     9.6936 H       
  39 H39           -4.0928     1.0807     8.3381 H       
  40 H40           -4.2385     0.0330     6.1145 H       
@<TRIPOS>BOND
   1    1    2 1
   2    1   22 1
   3    2    3 1
   4    2   23 1
   5    2   24 1
   6    3    4 1
   7    3   10 1
   8    3   25 1
   9    4    5 ar
  10    4    9 ar
  11    5    6 ar
  12    5   26 1
  13    6    7 ar
  14    6   27 1
  15    7    8 ar
  16    7   28 1
  17    8    9 ar
  18    8   29 1
  19    9   30 1
  20   10   11 am
  21   10   31 1
  22   11   12 2
  23   11   13 1
  24   13   14 1
  25   13   15 1
  26   13   32 1
  27   14   15 1
  28   14   33 1
  29   14   34 1
  30   15   16 1
  31   15   35 1
  32   16   17 ar
  33   16   21 ar
  34   17   18 ar
  35   17   36 1
  36   18   19 ar
  37   18   37 1
  38   19   20 ar
  39   19   38 1
  40   20   21 ar
  41   20   39 1
  42   21   40 1

#	End of record

