#	Name: ASD01913846
#	Creating user name:	WinNT
#	Creation time:	15. 06. 2019 20:02

#	Modifying user name:	WinNT
#	Modification time:	15. 06. 2019 20:02

#	Program:	/corina/corina34_cracker 3.40 0067  02.08.2006

@<TRIPOS>MOLECULE
ASD01913846
  41   43    0    0    0
SMALL
NO_CHARGES


@<TRIPOS>ATOM
   1 C1            -0.0197     1.4278    -0.0130 C.ar    
   2 C2             0.0003    -0.0040    -0.0141 C.1     
   3 C3             0.0168    -1.1779    -0.0150 C.1     
   4 C4             0.0369    -2.6098    -0.0160 C.ar    
   5 C5            -1.1525    -3.3388     0.1328 C.ar    
   6 C6             0.1560    -5.3344    -0.0290 C.ar    
   7 N7             1.2610    -4.6185    -0.1732 N.ar    
   8 C8             1.2401    -3.3018    -0.1710 C.ar    
   9 C9            -1.0819    -4.7174     0.1249 C.ar    
  10 C10            1.1693     2.1468    -0.1618 C.ar    
  11 C11            1.1422     3.5257    -0.1598 C.ar    
  12 C12           -1.2407     3.4921     0.1311 C.ar    
  13 C13           -1.2292     2.1129     0.1310 C.ar    
  14 C14           -0.0585     4.1973    -0.0105 C.ar    
  15 N15            0.2331    -6.7251    -0.0390 N.am    
  16 C16            0.1553    -7.3605    -1.2131 C.2     
  17 O17            0.1739    -8.6978    -1.3249 O.3     
  18 C18            0.6534    -9.4538    -0.1787 C.3     
  19 C19           -0.0195    -8.8897     1.0802 C.3     
  20 C20            0.4012    -7.4233     1.2329 C.3     
  21 C21            0.2865   -10.9300    -0.3432 C.3     
  22 C22            2.1720    -9.3079    -0.0622 C.3     
  23 O23            0.0630    -6.6960    -2.2261 O.2     
  24 H24           -2.0999    -2.8339     0.2510 H       
  25 H25            2.1619    -2.7519    -0.2906 H       
  26 H26           -1.9773    -5.3106     0.2374 H       
  27 H27            2.1072     1.6239    -0.2778 H       
  28 H28            2.0603     4.0827    -0.2747 H       
  29 H29           -2.1746     4.0229     0.2423 H       
  30 H30           -2.1525     1.5638     0.2416 H       
  31 H31           -0.0735     5.2772    -0.0089 H       
  32 H32           -1.1027    -8.9558     0.9784 H       
  33 H33            0.3030    -9.4559     1.9539 H       
  34 H34            1.4450    -7.3766     1.5432 H       
  35 H35           -0.2216    -6.9449     1.9888 H       
  36 H36            0.7470   -11.3198    -1.2510 H       
  37 H37            0.6478   -11.4923     0.5178 H       
  38 H38           -0.7966   -11.0295    -0.4137 H       
  39 H39            2.4271    -8.2560     0.0667 H       
  40 H40            2.5267    -9.8758     0.7978 H       
  41 H41            2.6441    -9.6878    -0.9683 H       
@<TRIPOS>BOND
   1    1    2 1
   2    1   10 ar
   3    1   13 ar
   4    2    3 3
   5    3    4 1
   6    4    5 ar
   7    4    8 ar
   8    5    9 ar
   9    5   24 1
  10    6    7 ar
  11    6   15 1
  12    6    9 ar
  13    7    8 ar
  14    8   25 1
  15    9   26 1
  16   10   11 ar
  17   10   27 1
  18   11   14 ar
  19   11   28 1
  20   12   13 ar
  21   12   14 ar
  22   12   29 1
  23   13   30 1
  24   14   31 1
  25   15   16 am
  26   15   20 1
  27   16   17 1
  28   16   23 2
  29   17   18 1
  30   18   19 1
  31   18   21 1
  32   18   22 1
  33   19   20 1
  34   19   32 1
  35   19   33 1
  36   20   34 1
  37   20   35 1
  38   21   36 1
  39   21   37 1
  40   21   38 1
  41   22   39 1
  42   22   40 1
  43   22   41 1

#	End of record

