#	Name: ASD03331233
#	Creating user name:	WinNT
#	Creation time:	15. 06. 2019 20:38

#	Modifying user name:	WinNT
#	Modification time:	15. 06. 2019 20:38

#	Program:	/corina/corina34_cracker 3.40 0067  02.08.2006

@<TRIPOS>MOLECULE
ASD03331233
  51   54    0    0    0
SMALL
NO_CHARGES


@<TRIPOS>ATOM
   1 N1            -0.0459     1.4956     0.5698 N.am    
   2 C2             0.0019     0.1506     1.1631 C.3     
   3 C3             0.5966    -0.8151     0.1326 C.3     
   4 N4             1.8894    -0.2949    -0.3322 N.3     
   5 C5             1.7288     0.9911    -1.0237 C.3     
   6 C6             1.1805     2.0309    -0.0406 C.3     
   7 C7            -1.1849     2.2161     0.5802 C.2     
   8 O8            -2.2139     1.7206     0.9973 O.2     
   9 N9            -1.1831     3.4859     0.1284 N.am    
  10 C10           -2.3851     4.1963     0.0330 C.ar    
  11 C11           -2.4015     5.5679     0.2480 C.ar    
  12 C12           -3.5894     6.2663     0.1526 C.ar    
  13 C13           -4.7613     5.6010    -0.1566 C.ar    
  14 C14           -4.7483     4.2348    -0.3714 C.ar    
  15 C15           -3.5631     3.5317    -0.2827 C.ar    
  16 C16            2.5724    -1.2723    -1.1903 C.3     
  17 C17            3.7649    -0.6215    -1.8425 C.ar    
  18 C18            5.0074    -0.6543    -1.2140 C.ar    
  19 N19            6.0671    -0.0995    -1.7510 N.ar    
  20 C20            6.0018     0.5250    -2.9308 C.ar    
  21 C21            4.7679     0.5951    -3.6243 C.ar    
  22 C22            3.6294    -0.0036    -3.0534 C.ar    
  23 C23            4.7046     1.2532    -4.8633 C.ar    
  24 C24            7.1413     1.1187    -3.5019 C.ar    
  25 C25            7.0439     1.7480    -4.7043 C.ar    
  26 C26            5.8292     1.8164    -5.3841 C.ar    
  27 C27           -3.6082     7.7549     0.3864 C.3     
  28 H28            0.6285     0.1658     2.0549 H       
  29 H29           -1.0063    -0.1697     1.4259 H       
  30 H30            0.7419    -1.7929     0.5919 H       
  31 H31           -0.0837    -0.9080    -0.7139 H       
  32 H32            2.6952     1.3233    -1.4030 H       
  33 H33            1.0327     0.8732    -1.8541 H       
  34 H34            0.9515     2.9537    -0.5736 H       
  35 H35            1.9203     2.2269     0.7355 H       
  36 H36           -0.3488     3.9073    -0.1307 H       
  37 H37           -1.4865     6.0881     0.4900 H       
  38 H38           -5.6889     6.1492    -0.2303 H       
  39 H39           -5.6653     3.7179    -0.6128 H       
  40 H40           -3.5528     2.4655    -0.4549 H       
  41 H41            2.9044    -2.1167    -0.5863 H       
  42 H42            1.8845    -1.6239    -1.9593 H       
  43 H43            5.1004    -1.1495    -0.2587 H       
  44 H44            2.6736     0.0309    -3.5551 H       
  45 H45            3.7692     1.3119    -5.3999 H       
  46 H46            8.0901     1.0756    -2.9878 H       
  47 H47            7.9220     2.2027    -5.1386 H       
  48 H48            5.7798     2.3214    -6.3374 H       
  49 H49           -3.4388     8.2731    -0.5575 H       
  50 H50           -4.5768     8.0468     0.7923 H       
  51 H51           -2.8227     8.0217     1.0934 H       
@<TRIPOS>BOND
   1    1    2 1
   2    1    6 1
   3    1    7 am
   4    2    3 1
   5    2   28 1
   6    2   29 1
   7    3    4 1
   8    3   30 1
   9    3   31 1
  10    4    5 1
  11    4   16 1
  12    5    6 1
  13    5   32 1
  14    5   33 1
  15    6   34 1
  16    6   35 1
  17    7    8 2
  18    7    9 am
  19    9   10 1
  20    9   36 1
  21   10   11 ar
  22   10   15 ar
  23   11   12 ar
  24   11   37 1
  25   12   13 ar
  26   12   27 1
  27   13   14 ar
  28   13   38 1
  29   14   15 ar
  30   14   39 1
  31   15   40 1
  32   16   17 1
  33   16   41 1
  34   16   42 1
  35   17   18 ar
  36   17   22 ar
  37   18   19 ar
  38   18   43 1
  39   19   20 ar
  40   20   21 ar
  41   20   24 ar
  42   21   22 ar
  43   21   23 ar
  44   22   44 1
  45   23   26 ar
  46   23   45 1
  47   24   25 ar
  48   24   46 1
  49   25   26 ar
  50   25   47 1
  51   26   48 1
  52   27   49 1
  53   27   50 1
  54   27   51 1

#	End of record

