#	Name: ASD01940535
#	Creating user name:	WinNT
#	Creation time:	15. 06. 2019 20:12

#	Modifying user name:	WinNT
#	Modification time:	15. 06. 2019 20:12

#	Program:	/corina/corina34_cracker 3.40 0067  02.08.2006

@<TRIPOS>MOLECULE
ASD01940535
  48   49    0    0    0
SMALL
NO_CHARGES


@<TRIPOS>ATOM
   1 C1            -0.0172     1.4103    -0.0092 C.2     
   2 C2             0.0021    -0.0041     0.0020 C.2     
   3 N3             1.1714     2.0897    -0.0165 N.pl3   
   4 N4             1.1551    -0.6461     0.0053 N.2     
   5 C5             2.3142     0.0081    -0.0018 C.2     
   6 C6             2.3496     1.3858    -0.0128 C.2     
   7 N7             0.8257     3.4446    -0.0276 N.2     
   8 N8            -0.4640     3.5031    -0.0264 N.2     
   9 N9            -0.9742     2.3224    -0.0202 N.2     
  10 C10            3.6376     2.0948    -0.0209 C.2     
  11 C11            4.5523     2.0550    -1.0292 C.2     
  12 C12            5.6847     2.8070    -0.8011 C.2     
  13 C13            5.7111     3.4556     0.3670 C.2     
  14 S14            4.2352     3.1335     1.2666 S.3     
  15 N15           -1.1882    -0.7146     0.0100 N.pl3   
  16 C16           -1.1930    -2.1806    -0.1078 C.3     
  17 C17           -2.0423    -2.7576     1.0298 C.3     
  18 N18           -3.3698    -2.1287     1.0130 N.3     
  19 C19           -3.2783    -0.6843     1.2645 C.3     
  20 C20           -2.4794    -0.0228     0.1427 C.3     
  21 C21           -4.2706    -2.7749     1.9768 C.3     
  22 H22            3.2397    -0.5484     0.0012 H       
  23 H23            4.4029     1.4817    -1.9322 H       
  24 H24            6.4929     2.8675    -1.5149 H       
  25 H25            6.5184     4.0874     0.7068 H       
  26 H26           -1.6216    -2.4694    -1.0675 H       
  27 H27           -0.1732    -2.5575    -0.0308 H       
  28 H28           -2.1481    -3.8340     0.8948 H       
  29 H29           -1.5565    -2.5563     1.9845 H       
  30 H30           -4.2805    -0.2571     1.2998 H       
  31 H31           -2.7753    -0.5119     2.2160 H       
  32 H32           -2.3096     1.0262     0.3853 H       
  33 H33           -3.0340    -0.1002    -0.7924 H       
  34 H34           -3.8541    -2.6852     2.9801 H       
  35 H35           -5.2463    -2.2899     1.9438 H       
  36 H36           -4.3800    -3.8289     1.7217 H       
  37 O37           13.7420    12.1728     9.2330 O.3     
  38 S38           13.7627    10.6509     9.2246 S.o2    
  39 O39           14.3607    10.3154     7.9801 O.2     
  40 O40           14.3844    10.3021    10.4539 O.2     
  41 C41           12.0124    10.1744     9.2388 C.3     
  42 H42           14.6200    12.5781     9.2268 H       
  43 H43           11.5184    10.5795     8.3557 H       
  44 H44           11.9317     9.0874     9.2337 H       
  45 H45           11.5354    10.5700    10.1355 H       
  46 O46           19.6200    18.5450    15.4601 O.3     
  47 H47           19.6331    17.5781    15.4548 H       
  48 H48           20.4979    18.9503    15.4539 H       
@<TRIPOS>BOND
   1    1    2 1
   2    1    3 1
   3    1    9 2
   4    2    4 2
   5    2   15 1
   6    3    6 1
   7    3    7 1
   8    4    5 1
   9    5    6 2
  10    5   22 1
  11    6   10 1
  12    7    8 2
  13    8    9 1
  14   10   11 2
  15   10   14 1
  16   11   12 1
  17   11   23 1
  18   12   13 2
  19   12   24 1
  20   13   14 1
  21   13   25 1
  22   15   16 1
  23   15   20 1
  24   16   17 1
  25   16   26 1
  26   16   27 1
  27   17   18 1
  28   17   28 1
  29   17   29 1
  30   18   19 1
  31   18   21 1
  32   19   20 1
  33   19   30 1
  34   19   31 1
  35   20   32 1
  36   20   33 1
  37   21   34 1
  38   21   35 1
  39   21   36 1
  40   37   38 1
  41   37   42 1
  42   38   39 2
  43   38   40 2
  44   38   41 1
  45   41   43 1
  46   41   44 1
  47   41   45 1
  48   46   47 1
  49   46   48 1

#	End of record

