#	Name: ASD01948093
#	Creating user name:	WinNT
#	Creation time:	15. 06. 2019 20:13

#	Modifying user name:	WinNT
#	Modification time:	15. 06. 2019 20:13

#	Program:	/corina/corina34_cracker 3.40 0067  02.08.2006

@<TRIPOS>MOLECULE
ASD01948093
  61   65    0    0    0
SMALL
NO_CHARGES


@<TRIPOS>ATOM
   1 C1            -0.6248     2.0008    -3.5292 C.3     
   2 C2            -0.8679     0.5191    -3.8614 C.3     
   3 C3            -1.1143     0.9659    -5.3120 C.3     
   4 C4            -1.5126     2.3364    -4.7393 C.3     
   5 S5            -1.3354     2.5156    -1.9416 S.o2    
   6 O6            -2.7404     2.6937    -2.0584 O.2     
   7 O7            -0.7792     1.7567    -0.8768 O.2     
   8 N8            -0.7484     4.0456    -1.7029 N.am    
   9 C9             1.5018     3.1740    -1.5324 C.2     
  10 C10            0.6258     4.2427    -1.4543 C.2     
  11 C11            1.1013     5.5210    -1.1291 C.2     
  12 C12            2.4635     5.6734    -0.8917 C.2     
  13 C13            3.3009     4.5755    -0.9815 C.2     
  14 N14            2.8324     3.3315    -1.2984 N.am    
  15 S15            1.1486     1.4818    -1.9139 S.3     
  16 C16            3.6623     2.1326    -1.4094 C.3     
  17 C17            2.8599     0.8873    -1.7761 C.3     
  18 O18            4.4961     4.7227    -0.7706 O.2     
  19 C19            3.0242     7.0271    -0.5391 C.3     
  20 N20            0.2375     6.6036    -1.0468 N.pl3   
  21 C21           -0.8011     6.6002    -0.1094 C.ar    
  22 C22           -1.7495     7.6181    -0.1159 C.ar    
  23 C23           -2.7744     7.6108     0.8118 C.ar    
  24 C24           -2.8564     6.5928     1.7455 C.ar    
  25 C25           -1.9147     5.5801     1.7535 C.ar    
  26 C26           -0.8909     5.5782     0.8255 C.ar    
  27 I27           -4.4104     6.5861     3.1505 I       
  28 F28           -1.6687     8.6124    -1.0270 F       
  29 O29            0.0712     1.0014    -6.1093 O.3     
  30 C30           -0.1532     0.7409    -7.4963 C.3     
  31 C31            1.1574     0.8032    -8.2375 C.ar    
  32 C32            1.9233    -0.3382    -8.3845 C.ar    
  33 C33            3.1256    -0.2810    -9.0643 C.ar    
  34 C34            3.5617     0.9174    -9.5977 C.ar    
  35 C35            2.7954     2.0586    -9.4515 C.ar    
  36 C36            1.5911     2.0005    -8.7754 C.ar    
  37 H37            0.4132     2.3107    -3.6499 H       
  38 H38            0.0169    -0.1061    -3.7413 H       
  39 H39           -1.7509     0.1022    -3.3770 H       
  40 H40           -1.9363     0.4399    -5.7973 H       
  41 H41           -2.5718     2.4163    -4.4949 H       
  42 H42           -1.1483     3.1783    -5.3280 H       
  43 H43           -1.3496     4.8061    -1.7340 H       
  44 H44            4.4218     2.3004    -2.1730 H       
  45 H45            4.1600     1.9601    -0.4551 H       
  46 H46            2.9414     0.1393    -0.9875 H       
  47 H47            3.1990     0.4778    -2.7277 H       
  48 H48            3.0897     7.1222     0.5447 H       
  49 H49            4.0182     7.1331    -0.9738 H       
  50 H50            2.3704     7.8051    -0.9333 H       
  51 H51            0.3536     7.3629    -1.6392 H       
  52 H52           -3.5113     8.4003     0.8081 H       
  53 H53           -1.9817     4.7874     2.4840 H       
  54 H54           -0.1586     4.7844     0.8304 H       
  55 H55           -0.5902    -0.2507    -7.6137 H       
  56 H56           -0.8352     1.4888    -7.9007 H       
  57 H57            1.5826    -1.2745    -7.9678 H       
  58 H58            3.7243    -1.1726    -9.1785 H       
  59 H59            4.5013     0.9622   -10.1282 H       
  60 H60            3.1363     2.9950    -9.8679 H       
  61 H61            0.9906     2.8913    -8.6644 H       
@<TRIPOS>BOND
   1    1    2 1
   2    1    4 1
   3    1    5 1
   4    1   37 1
   5    2    3 1
   6    2   38 1
   7    2   39 1
   8    3    4 1
   9    3   29 1
  10    3   40 1
  11    4   41 1
  12    4   42 1
  13    5    6 2
  14    5    7 2
  15    5    8 am
  16    8   10 1
  17    8   43 1
  18    9   10 2
  19    9   14 1
  20    9   15 1
  21   10   11 1
  22   11   12 2
  23   11   20 1
  24   12   13 1
  25   12   19 1
  26   13   14 am
  27   13   18 2
  28   14   16 1
  29   15   17 1
  30   16   17 1
  31   16   44 1
  32   16   45 1
  33   17   46 1
  34   17   47 1
  35   19   48 1
  36   19   49 1
  37   19   50 1
  38   20   21 1
  39   20   51 1
  40   21   22 ar
  41   21   26 ar
  42   22   23 ar
  43   22   28 1
  44   23   24 ar
  45   23   52 1
  46   24   25 ar
  47   24   27 1
  48   25   26 ar
  49   25   53 1
  50   26   54 1
  51   29   30 1
  52   30   31 1
  53   30   55 1
  54   30   56 1
  55   31   32 ar
  56   31   36 ar
  57   32   33 ar
  58   32   57 1
  59   33   34 ar
  60   33   58 1
  61   34   35 ar
  62   34   59 1
  63   35   36 ar
  64   35   60 1
  65   36   61 1

#	End of record

