#	Name: ASD02038626
#	Creating user name:	WinNT
#	Creation time:	15. 06. 2019 20:17

#	Modifying user name:	WinNT
#	Modification time:	15. 06. 2019 20:17

#	Program:	/corina/corina34_cracker 3.40 0067  02.08.2006

@<TRIPOS>MOLECULE
ASD02038626
  58   59    0    0    0
SMALL
NO_CHARGES


@<TRIPOS>ATOM
   1 C1            -0.3736     1.0721     1.1828 C.ar    
   2 C2            -0.3502    -0.3076     1.0665 C.ar    
   3 C3            -1.5307    -1.0084     0.9040 C.ar    
   4 C4            -2.7398    -0.3273     0.8576 C.ar    
   5 C5            -2.7597     1.0569     0.9747 C.ar    
   6 C6            -1.5781     1.7519     1.1421 C.ar    
   7 N7            -3.9347    -1.0329     0.6930 N.pl3   
   8 C8            -5.2097    -0.3131     0.6443 C.3     
   9 C9            -6.3530    -1.3128     0.4588 C.3     
  10 N10           -7.6281    -0.5930     0.4101 N.am    
  11 C11           -8.1139    -0.1621    -0.7709 C.2     
  12 C12           -9.4255     0.5783    -0.8211 C.3     
  13 O13           -9.7239     0.9276    -2.1742 O.3     
  14 C14          -10.8820     1.6053    -2.3960 C.ar    
  15 C15          -11.2325     1.9751    -3.6860 C.ar    
  16 C16          -11.7147     1.9212    -1.3327 C.ar    
  17 C17          -12.8911     2.6090    -1.5570 C.ar    
  18 C18          -13.2400     2.9846    -2.8475 C.ar    
  19 C19          -12.4083     2.6634    -3.9121 C.ar    
  20 N20          -14.4319     3.6815    -3.0757 N.am    
  21 S21          -14.5417     5.2859    -2.6803 S.o2    
  22 O22          -15.8604     5.6517    -3.0631 O.2     
  23 O23          -14.1318     5.3405    -1.3208 O.2     
  24 C24          -13.3205     6.0995    -3.7466 C.3     
  25 Cl25           1.1102     1.9497     1.3873 Cl      
  26 Cl26           1.1624    -1.1576     1.1241 Cl      
  27 C27           -8.3750    -0.3416     1.6450 C.3     
  28 C28           -7.9356     0.9962     2.2434 C.3     
  29 C29           -8.7157     1.2588     3.5332 C.3     
  30 C30           -8.2763     2.5967     4.1315 C.3     
  31 O31           -7.4956    -0.3703    -1.7933 O.2     
  32 H32           -1.5124    -2.0844     0.8129 H       
  33 H33           -3.6989     1.5888     0.9386 H       
  34 H34           -1.5936     2.8279     1.2334 H       
  35 H35           -3.9199    -1.9993     0.6111 H       
  36 H36           -5.3536     0.2347     1.5756 H       
  37 H37           -5.2001     0.3869    -0.1912 H       
  38 H38           -6.2092    -1.8606    -0.4725 H       
  39 H39           -6.3627    -2.0128     1.2943 H       
  40 H40          -10.2175    -0.0585    -0.4271 H       
  41 H41           -9.3545     1.4843    -0.2192 H       
  42 H42          -10.5855     1.7252    -4.5139 H       
  43 H43          -11.4432     1.6289    -0.3291 H       
  44 H44          -13.5397     2.8543    -0.7290 H       
  45 H45          -12.6789     2.9552    -4.9161 H       
  46 H46          -15.1937     3.2248    -3.4656 H       
  47 H47          -13.5210     5.8462    -4.7876 H       
  48 H48          -13.3867     7.1797    -3.6163 H       
  49 H49          -12.3199     5.7616    -3.4767 H       
  50 H50           -9.4418    -0.3079     1.4239 H       
  51 H51           -8.1769    -1.1413     2.3586 H       
  52 H52           -6.8688     0.9625     2.4645 H       
  53 H53           -8.1337     1.7960     1.5298 H       
  54 H54           -9.7825     1.2926     3.3121 H       
  55 H55           -8.5176     0.4591     4.2468 H       
  56 H56           -8.8320     2.7837     5.0504 H       
  57 H57           -7.2095     2.5629     4.3526 H       
  58 H58           -8.4743     3.3964     3.4179 H       
@<TRIPOS>BOND
   1    1    2 ar
   2    1   25 1
   3    1    6 ar
   4    2    3 ar
   5    2   26 1
   6    3    4 ar
   7    3   32 1
   8    4    5 ar
   9    4    7 1
  10    5    6 ar
  11    5   33 1
  12    6   34 1
  13    7    8 1
  14    7   35 1
  15    8    9 1
  16    8   36 1
  17    8   37 1
  18    9   10 1
  19    9   38 1
  20    9   39 1
  21   10   11 am
  22   10   27 1
  23   11   12 1
  24   11   31 2
  25   12   13 1
  26   12   40 1
  27   12   41 1
  28   13   14 1
  29   14   15 ar
  30   14   16 ar
  31   15   19 ar
  32   15   42 1
  33   16   17 ar
  34   16   43 1
  35   17   18 ar
  36   17   44 1
  37   18   19 ar
  38   18   20 1
  39   19   45 1
  40   20   21 am
  41   20   46 1
  42   21   22 2
  43   21   23 2
  44   21   24 1
  45   24   47 1
  46   24   48 1
  47   24   49 1
  48   27   28 1
  49   27   50 1
  50   27   51 1
  51   28   29 1
  52   28   52 1
  53   28   53 1
  54   29   30 1
  55   29   54 1
  56   29   55 1
  57   30   56 1
  58   30   57 1
  59   30   58 1

#	End of record

