#	Name: ASD08150984
#	Creating user name:	WinNT
#	Creation time:	15. 06. 2019 21:16

#	Modifying user name:	WinNT
#	Modification time:	15. 06. 2019 21:16

#	Program:	/corina/corina34_cracker 3.40 0067  02.08.2006

@<TRIPOS>MOLECULE
ASD08150984
  23   24    0    0    0
SMALL
NO_CHARGES


@<TRIPOS>ATOM
   1 C1            -0.0184     1.5028     0.0103 C.2     
   2 C2             0.0841    -0.0004    -0.0222 C.3     
   3 C3             1.1035     3.7059    -0.0878 C.ar    
   4 C4             1.2013     2.3226     0.0078 C.ar    
   5 C5             2.4624     1.7016     0.1027 C.ar    
   6 C6             3.6015     2.4378     0.1023 C.ar    
   7 C7             3.5356     3.8407     0.0069 C.ar    
   8 C8             4.7032     4.6212     0.0058 C.ar    
   9 C9             4.6095     5.9765    -0.0873 C.ar    
  10 C10            3.3697     6.6056    -0.1820 C.ar    
  11 C11            2.2164     5.8827    -0.1836 C.ar    
  12 C12            2.2736     4.4806    -0.0894 C.ar    
  13 Br13          -0.5904     4.5357    -0.2221 Br      
  14 O14           -1.1074     2.0360     0.0335 O.2     
  15 H15            1.1281    -0.2910    -0.1387 H       
  16 H16           -0.3057    -0.4114     0.9090 H       
  17 H17           -0.4961    -0.3860    -0.8605 H       
  18 H18            2.5228     0.6259     0.1770 H       
  19 H19            4.5607     1.9469     0.1757 H       
  20 H20            5.6715     4.1485     0.0789 H       
  21 H21            5.5098     6.5730    -0.0874 H       
  22 H22            3.3233     7.6822    -0.2548 H       
  23 H23            1.2622     6.3833    -0.2569 H       
@<TRIPOS>BOND
   1    1    2 1
   2    1    4 1
   3    1   14 2
   4    2   15 1
   5    2   16 1
   6    2   17 1
   7    3    4 ar
   8    3   12 ar
   9    3   13 1
  10    4    5 ar
  11    5    6 ar
  12    5   18 1
  13    6    7 ar
  14    6   19 1
  15    7    8 ar
  16    7   12 ar
  17    8    9 ar
  18    8   20 1
  19    9   10 ar
  20    9   21 1
  21   10   11 ar
  22   10   22 1
  23   11   12 ar
  24   11   23 1

#	End of record

