#	Name: ASD00843498
#	Creating user name:	WinNT
#	Creation time:	15. 06. 2019 18:46

#	Modifying user name:	WinNT
#	Modification time:	15. 06. 2019 18:46

#	Program:	/corina/corina34_cracker 3.40 0067  02.08.2006

@<TRIPOS>MOLECULE
ASD00843498
  94   99    0    0    0
SMALL
NO_CHARGES


@<TRIPOS>ATOM
   1 F1             5.5955    -2.6299    -1.9628 F       
   2 N2             0.8288     1.0236    -0.4939 N.ar    
   3 C3             0.9968    -0.2719    -0.6999 C.ar    
   4 C4             0.8358    -1.1804     0.3386 C.ar    
   5 C5             0.4965    -0.7126     1.5959 C.ar    
   6 C6             0.3293     0.6545     1.7708 C.ar    
   7 C7             0.5052     1.4997     0.6936 C.ar    
   8 C8             1.0277    -2.6558     0.0990 C.3     
   9 C9             0.6621    -3.4460     1.3371 C.2     
  10 C10            0.1918    -3.1163    -1.0969 C.3     
  11 C11           -1.2488    -2.7298    -0.8814 C.2     
  12 N12           -2.1918    -3.1289    -1.7577 N.am    
  13 O13           -1.5595    -2.0597     0.0805 O.2     
  14 C14           -3.5841    -2.6729    -1.6280 C.3     
  15 C15           -4.0405    -2.1119    -2.9790 C.3     
  16 N16           -3.8109    -3.1168    -4.0256 N.3     
  17 C17           -2.3804    -3.4175    -4.1711 C.3     
  18 C18           -1.8548    -4.0272    -2.8725 C.3     
  19 C19           -4.3912    -2.6866    -5.3048 C.3     
  20 C20           -4.0263    -3.6956    -6.3972 C.3     
  21 C21           -4.6838    -3.2749    -7.7136 C.3     
  22 N22           -6.1408    -3.2208    -7.5391 N.3     
  23 C23           -6.5179    -2.2245    -6.5283 C.3     
  24 C24           -5.9152    -2.6139    -5.1766 C.3     
  25 C25           -6.8146    -2.9552    -8.8171 C.3     
  26 O26           -0.4262    -3.4843     1.8714 O.2     
  27 N27            1.7683    -4.0973     1.7333 N.am    
  28 C28            2.4901    -2.9708    -0.1208 C.ar    
  29 C29            2.8598    -3.8408     0.8999 C.ar    
  30 C30            3.3984    -2.5661    -1.0741 C.ar    
  31 C31            4.7033    -3.0249    -1.0284 C.ar    
  32 C32            5.0929    -3.9001    -0.0094 C.ar    
  33 C33            4.1683    -4.3062     0.9524 C.ar    
  34 C34            1.4240    -6.7151     2.5098 C.ar    
  35 C35            0.1553    -6.9846     2.0180 C.ar    
  36 C36            2.3703    -7.7203     2.5649 C.ar    
  37 C37            2.0537    -8.9938     2.1299 C.ar    
  38 C38            0.7896    -9.2651     1.6392 C.ar    
  39 C39           -0.1601    -8.2637     1.5825 C.ar    
  40 H40            0.5447   -10.2608     1.3000 H       
  41 O41           -0.7773    -5.9977     1.9632 O.3     
  42 C42           -2.0624    -6.3474     1.4452 C.3     
  43 C43           -2.9711    -5.1166     1.4615 C.3     
  44 C44           -8.3226    -3.1518    -8.6492 C.3     
  45 C45            6.4410    -4.3798     0.0458 C.1     
  46 N46            7.5105    -4.7604     0.0896 N.1     
  47 S47            1.8307    -5.0903     3.0570 S.o2    
  48 O48            3.1918    -5.1327     3.4630 O.2     
  49 O49            0.7758    -4.6805     3.9163 O.2     
  50 O50            1.3290    -0.7179    -1.9375 O.3     
  51 C51            1.4150     0.2583    -2.9775 C.3     
  52 C52            1.9019    -0.4096    -4.2650 C.3     
  53 F53            3.1218    -1.0510    -4.0251 F       
  54 F54            0.9564    -1.3495    -4.6891 F       
  55 H55            0.3643    -1.3954     2.4221 H       
  56 H56            0.0641     1.0524     2.7391 H       
  57 H57            0.3767     2.5640     0.8244 H       
  58 H58            0.5636    -2.6411    -2.0047 H       
  59 H59            0.2664    -4.1992    -1.1969 H       
  60 H60           -4.2197    -3.5125    -1.3466 H       
  61 H61           -3.6449    -1.8935    -0.8685 H       
  62 H62           -5.1025    -1.8709    -2.9328 H       
  63 H63           -3.4723    -1.2106    -3.2092 H       
  64 H64           -2.2385    -4.1234    -4.9894 H       
  65 H65           -1.8353    -2.4981    -4.3847 H       
  66 H66           -0.7731    -4.1456    -2.9351 H       
  67 H67           -2.3233    -4.9974    -2.7076 H       
  68 H68           -3.9997    -1.7047    -5.5704 H       
  69 H69           -2.9438    -3.7205    -6.5227 H       
  70 H70           -4.3830    -4.6854    -6.1123 H       
  71 H71           -4.3161    -2.2910    -8.0049 H       
  72 H72           -4.4376    -3.9991    -8.4902 H       
  73 H73           -6.1417    -1.2456    -6.8253 H       
  74 H74           -7.6040    -2.1858    -6.4441 H       
  75 H75           -6.3017    -3.5866    -4.8725 H       
  76 H76           -6.1823    -1.8659    -4.4301 H       
  77 H77           -6.6142    -1.9297    -9.1273 H       
  78 H78           -6.4406    -3.6436    -9.5750 H       
  79 H79            3.0916    -1.8902    -1.8585 H       
  80 H80            4.4696    -4.9820     1.7391 H       
  81 H81            3.3582    -7.5110     2.9477 H       
  82 H82            2.7949    -9.7781     2.1731 H       
  83 H83           -1.1474    -8.4763     1.1998 H       
  84 H84           -1.9560    -6.7070     0.4217 H       
  85 H85           -2.5016    -7.1315     2.0620 H       
  86 H86           -3.0775    -4.7571     2.4850 H       
  87 H87           -2.5318    -4.3325     0.8448 H       
  88 H88           -3.9513    -5.3834     1.0664 H       
  89 H89           -8.8225    -2.9547    -9.5975 H       
  90 H90           -8.5230    -4.1774    -8.3391 H       
  91 H91           -8.6966    -2.4634    -7.8914 H       
  92 H92            0.4317     0.6978    -3.1455 H       
  93 H93            2.1169     1.0394    -2.6855 H       
  94 H94            2.0349     0.3465    -5.0387 H       
@<TRIPOS>BOND
   1    1   31 1
   2    2    3 ar
   3    2    7 ar
   4    3    4 ar
   5    3   50 1
   6    4    5 ar
   7    4    8 1
   8    5    6 ar
   9    5   55 1
  10    6    7 ar
  11    6   56 1
  12    7   57 1
  13    8    9 1
  14    8   10 1
  15    8   28 1
  16    9   26 2
  17    9   27 am
  18   10   11 1
  19   10   58 1
  20   10   59 1
  21   11   12 am
  22   11   13 2
  23   12   14 1
  24   12   18 1
  25   14   15 1
  26   14   60 1
  27   14   61 1
  28   15   16 1
  29   15   62 1
  30   15   63 1
  31   16   17 1
  32   16   19 1
  33   17   18 1
  34   17   64 1
  35   17   65 1
  36   18   66 1
  37   18   67 1
  38   19   20 1
  39   19   24 1
  40   19   68 1
  41   20   21 1
  42   20   69 1
  43   20   70 1
  44   21   22 1
  45   21   71 1
  46   21   72 1
  47   22   23 1
  48   22   25 1
  49   23   24 1
  50   23   73 1
  51   23   74 1
  52   24   75 1
  53   24   76 1
  54   25   44 1
  55   25   77 1
  56   25   78 1
  57   27   47 am
  58   27   29 1
  59   28   29 ar
  60   28   30 ar
  61   29   33 ar
  62   30   31 ar
  63   30   79 1
  64   31   32 ar
  65   32   33 ar
  66   32   45 1
  67   33   80 1
  68   34   35 ar
  69   34   36 ar
  70   34   47 1
  71   35   41 1
  72   35   39 ar
  73   36   37 ar
  74   36   81 1
  75   37   38 ar
  76   37   82 1
  77   38   39 ar
  78   38   40 1
  79   39   83 1
  80   41   42 1
  81   42   43 1
  82   42   84 1
  83   42   85 1
  84   43   86 1
  85   43   87 1
  86   43   88 1
  87   44   89 1
  88   44   90 1
  89   44   91 1
  90   45   46 3
  91   47   48 2
  92   47   49 2
  93   50   51 1
  94   51   52 1
  95   51   92 1
  96   51   93 1
  97   52   53 1
  98   52   54 1
  99   52   94 1

#	End of record

