#	Name: ASD03240293
#	Creating user name:	WinNT
#	Creation time:	15. 06. 2019 20:34

#	Modifying user name:	WinNT
#	Modification time:	15. 06. 2019 20:34

#	Program:	/corina/corina34_cracker 3.40 0067  02.08.2006

@<TRIPOS>MOLECULE
ASD03240293
  98  104    0    0    0
SMALL
NO_CHARGES


@<TRIPOS>ATOM
   1 C1             0.4018     2.6213     1.9812 C.2     
   2 N2             0.6372     1.8751     3.1117 N.pl3   
   3 O3            -3.2561     4.1507     1.4821 O.2     
   4 C4            -2.5200     4.4437     0.5638 C.2     
   5 C5            -1.0916     3.9634     0.5603 C.3     
   6 N6            -0.8408     3.1684     1.7650 N.pl3   
   7 N7             1.3583     2.8145     1.1170 N.2     
   8 N8            -2.9796     5.1988    -0.4536 N.am    
   9 C9            -4.3266     5.5489    -0.5079 C.ar    
  10 C10           -4.7065     6.7945    -1.0273 C.ar    
  11 C11           -6.0501     7.1400    -1.0798 C.ar    
  12 C12           -7.0150     6.2452    -0.6151 C.ar    
  13 C13           -6.6267     5.0053    -0.0987 C.ar    
  14 C14           -5.2937     4.6614    -0.0524 C.ar    
  15 C15           -8.4447     6.6078    -0.6682 C.2     
  16 N16           -9.3763     5.7434    -0.2193 N.am    
  17 O17           -8.7821     7.6864    -1.1170 O.2     
  18 C18          -10.7202     6.1331    -0.1552 C.ar    
  19 C19          -11.7246     5.1769    -0.2278 C.ar    
  20 C20          -11.0480     7.4751    -0.0133 C.ar    
  21 C21          -12.3726     7.8593     0.0498 C.ar    
  22 C22          -13.3773     6.9035    -0.0285 C.ar    
  23 C23          -13.0492     5.5608    -0.1647 C.ar    
  24 N24          -14.7195     7.2926     0.0360 N.pl3   
  25 C25          -15.7792     6.2845    -0.0467 C.3     
  26 C26          -15.0654     8.7083     0.1862 C.3     
  27 C27           -3.6756     7.7408    -1.5191 C.ar    
  28 C28           -3.8062     8.3255    -2.7774 C.ar    
  29 C29           -2.8441     9.2057    -3.2296 C.ar    
  30 C30           -1.7518     9.5079    -2.4365 C.ar    
  31 C31           -1.6169     8.9301    -1.1869 C.ar    
  32 C32           -2.5757     8.0530    -0.7221 C.ar    
  33 C33          -15.2103     9.3372    -1.1757 C.ar    
  34 C34          -16.1163     5.7953     1.3383 C.ar    
  35 C35          -16.4418     9.3408    -1.8055 C.ar    
  36 C36          -16.5802     9.9154    -3.0527 C.ar    
  37 C37          -15.4764    10.4925    -3.6774 C.ar    
  38 C38          -14.2383    10.4860    -3.0384 C.ar    
  39 C39          -14.1125     9.9137    -1.7887 C.ar    
  40 C40          -17.0982     6.4334     2.0745 C.ar    
  41 C41          -17.4110     5.9896     3.3434 C.ar    
  42 C42          -16.7355     4.8966     3.8826 C.ar    
  43 C43          -15.7472     4.2577     3.1366 C.ar    
  44 C44          -15.4465     4.7064     1.8665 C.ar    
  45 C45          -15.6190    11.1114    -5.0185 C.ar    
  46 C46          -17.0671     4.4152     5.2465 C.ar    
  47 C47          -14.5153    11.6885    -5.6432 C.ar    
  48 C48          -14.6536    12.2627    -6.8906 C.ar    
  49 C49          -15.8851    12.2664    -7.5204 C.ar    
  50 C50          -16.9842    11.6953    -6.9047 C.ar    
  51 C51          -16.8558    11.1124    -5.6602 C.ar    
  52 C52          -16.3916     3.3223     5.7857 C.ar    
  53 C53          -16.7040     2.8788     7.0548 C.ar    
  54 C54          -17.6860     3.5168     7.7909 C.ar    
  55 C55          -18.3600     4.6019     7.2604 C.ar    
  56 C56          -18.0510     5.0580     5.9949 C.ar    
  57 H57            1.5150     1.4925     3.2662 H       
  58 H58           -0.0746     1.7313     3.7548 H       
  59 H59           -0.9169     3.3494    -0.3232 H       
  60 H60           -0.4198     4.8216     0.5450 H       
  61 H61           -1.5515     3.0279     2.4100 H       
  62 H62            1.1922     3.3409     0.3194 H       
  63 H63           -2.3722     5.4985    -1.1480 H       
  64 H64           -6.3477     8.0985    -1.4788 H       
  65 H65           -7.3742     4.3136     0.2607 H       
  66 H66           -4.9988     3.7024     0.3474 H       
  67 H67           -9.1161     4.8515     0.0594 H       
  68 H68          -11.4695     4.1328    -0.3341 H       
  69 H69          -10.2667     8.2182     0.0479 H       
  70 H70          -12.6275     8.9029     0.1605 H       
  71 H71          -13.8304     4.8175    -0.2260 H       
  72 H72          -16.6659     6.7258    -0.5019 H       
  73 H73          -15.4373     5.4469    -0.6546 H       
  74 H74          -16.0063     8.7968     0.7292 H       
  75 H75          -14.2770     9.2182     0.7398 H       
  76 H76           -4.6584     8.0900    -3.3976 H       
  77 H77           -2.9441     9.6591    -4.2047 H       
  78 H78           -1.0014    10.1972    -2.7944 H       
  79 H79           -0.7618     9.1694    -0.5721 H       
  80 H80           -2.4693     7.6025     0.2536 H       
  81 H81          -17.2965     8.8929    -1.3205 H       
  82 H82          -17.5421     9.9174    -3.5437 H       
  83 H83          -13.3795    10.9320    -3.5181 H       
  84 H84          -13.1533     9.9081    -1.2925 H       
  85 H85          -17.6209     7.2806     1.6557 H       
  86 H86          -18.1776     6.4887     3.9175 H       
  87 H87          -15.2206     3.4101     3.5497 H       
  88 H88          -14.6807     4.2119     1.2874 H       
  89 H89          -13.5534    11.6868    -5.1521 H       
  90 H90          -13.7988    12.7103    -7.3758 H       
  91 H91          -15.9889    12.7171    -8.4964 H       
  92 H92          -17.9435    11.7013    -7.4008 H       
  93 H93          -17.7146    10.6665    -5.1805 H       
  94 H94          -15.6252     2.8230     5.2115 H       
  95 H95          -16.1811     2.0318     7.4737 H       
  96 H96          -17.9276     3.1662     8.7835 H       
  97 H97          -19.1261     5.0962     7.8394 H       
  98 H98          -18.5777     5.9056     5.5817 H       
@<TRIPOS>BOND
   1    1    2 1
   2    1    7 2
   3    1    6 1
   4    2   57 1
   5    2   58 1
   6    3    4 2
   7    4    5 1
   8    4    8 am
   9    5    6 1
  10    5   59 1
  11    5   60 1
  12    6   61 1
  13    7   62 1
  14    8    9 1
  15    8   63 1
  16    9   10 ar
  17    9   14 ar
  18   10   11 ar
  19   10   27 1
  20   11   12 ar
  21   11   64 1
  22   12   13 ar
  23   12   15 1
  24   13   14 ar
  25   13   65 1
  26   14   66 1
  27   15   16 am
  28   15   17 2
  29   16   18 1
  30   16   67 1
  31   18   19 ar
  32   18   20 ar
  33   19   23 ar
  34   19   68 1
  35   20   21 ar
  36   20   69 1
  37   21   22 ar
  38   21   70 1
  39   22   23 ar
  40   22   24 1
  41   23   71 1
  42   24   25 1
  43   24   26 1
  44   25   34 1
  45   25   72 1
  46   25   73 1
  47   26   33 1
  48   26   74 1
  49   26   75 1
  50   27   28 ar
  51   27   32 ar
  52   28   29 ar
  53   28   76 1
  54   29   30 ar
  55   29   77 1
  56   30   31 ar
  57   30   78 1
  58   31   32 ar
  59   31   79 1
  60   32   80 1
  61   33   35 ar
  62   33   39 ar
  63   34   40 ar
  64   34   44 ar
  65   35   36 ar
  66   35   81 1
  67   36   37 ar
  68   36   82 1
  69   37   38 ar
  70   37   45 1
  71   38   39 ar
  72   38   83 1
  73   39   84 1
  74   40   41 ar
  75   40   85 1
  76   41   42 ar
  77   41   86 1
  78   42   43 ar
  79   42   46 1
  80   43   44 ar
  81   43   87 1
  82   44   88 1
  83   45   47 ar
  84   45   51 ar
  85   46   52 ar
  86   46   56 ar
  87   47   48 ar
  88   47   89 1
  89   48   49 ar
  90   48   90 1
  91   49   50 ar
  92   49   91 1
  93   50   51 ar
  94   50   92 1
  95   51   93 1
  96   52   53 ar
  97   52   94 1
  98   53   54 ar
  99   53   95 1
 100   54   55 ar
 101   54   96 1
 102   55   56 ar
 103   55   97 1
 104   56   98 1

#	End of record

