#	Name: ASD01918141
#	Creating user name:	WinNT
#	Creation time:	15. 06. 2019 20:10

#	Modifying user name:	WinNT
#	Modification time:	15. 06. 2019 20:10

#	Program:	/corina/corina34_cracker 3.40 0067  02.08.2006

@<TRIPOS>MOLECULE
ASD01918141
  38   41    0    0    0
SMALL
NO_CHARGES


@<TRIPOS>ATOM
   1 N1             4.8253    -0.4043    -2.1402 N.ar    
   2 C2             5.2914     0.2917    -3.1578 C.ar    
   3 C3             5.1763     1.6746    -3.1855 C.ar    
   4 C4             4.5602     2.3233    -2.1218 C.ar    
   5 C5             4.0817     1.5534    -1.0672 C.ar    
   6 C6             4.2350     0.1750    -1.1136 C.ar    
   7 O7             3.4725     2.1431    -0.0052 O.3     
   8 C8             3.4500     3.5021     0.0444 C.2     
   9 N9             2.1945     5.5119    -0.0210 N.pl3   
  10 C10            2.2656     4.1562    -0.0650 C.2     
  11 C11            4.6480     4.2065     0.2134 C.2     
  12 C12            4.6168     5.5957     0.2636 C.2     
  13 C13            3.3228     6.2657     0.1366 C.2     
  14 C14            5.8551     6.3728     0.4406 C.2     
  15 N15            5.8052     7.7188     0.4869 N.am    
  16 O16            6.9230     5.7999     0.5450 O.2     
  17 N17            1.1295     6.4205    -0.1072 N.2     
  18 C18            1.6413     7.6244    -0.0088 C.2     
  19 N19            2.9567     7.5377     0.1431 N.2     
  20 C20            6.9603     8.4502     0.7598 C.ar    
  21 O21            5.6600     2.3850    -4.2384 O.3     
  22 N22            8.1222     7.8250     0.8651 N.ar    
  23 C23            6.8812     9.8295     0.9130 C.ar    
  24 C24            8.0349    10.5445     1.1832 C.ar    
  25 C25            9.2343     9.8509     1.2915 C.ar    
  26 C26            9.2392     8.4781     1.1219 C.ar    
  27 F27           10.3836    10.5108     1.5540 F       
  28 H28            5.7691    -0.2203    -3.9801 H       
  29 H29            4.4560     3.3983    -2.1144 H       
  30 H30            3.8660    -0.4305    -0.2990 H       
  31 H31            1.3578     3.5848    -0.1904 H       
  32 H32            5.5851     3.6773     0.3040 H       
  33 H33            4.9656     8.1787     0.3303 H       
  34 H34            1.0774     8.5451    -0.0392 H       
  35 H35            5.0198     2.5175    -4.9508 H       
  36 H36            5.9320    10.3366     0.8219 H       
  37 H37            8.0039    11.6170     1.3068 H       
  38 H38           10.1689     7.9343     1.2007 H       
@<TRIPOS>BOND
   1    1    2 ar
   2    1    6 ar
   3    2    3 ar
   4    2   28 1
   5    3    4 ar
   6    3   21 1
   7    4    5 ar
   8    4   29 1
   9    5    6 ar
  10    5    7 1
  11    6   30 1
  12    7    8 1
  13    8   11 1
  14    8   10 2
  15    9   10 1
  16    9   17 1
  17    9   13 1
  18   10   31 1
  19   11   12 2
  20   11   32 1
  21   12   13 1
  22   12   14 1
  23   13   19 2
  24   14   15 am
  25   14   16 2
  26   15   20 1
  27   15   33 1
  28   17   18 2
  29   18   19 1
  30   18   34 1
  31   20   23 ar
  32   20   22 ar
  33   21   35 1
  34   22   26 ar
  35   23   24 ar
  36   23   36 1
  37   24   25 ar
  38   24   37 1
  39   25   26 ar
  40   25   27 1
  41   26   38 1

#	End of record

