#	Name: ASD01870558
#	Creating user name:	WinNT
#	Creation time:	15. 06. 2019 19:39

#	Modifying user name:	WinNT
#	Modification time:	15. 06. 2019 19:39

#	Program:	/corina/corina34_cracker 3.40 0067  02.08.2006

@<TRIPOS>MOLECULE
ASD01870558
  42   45    0    0    0
SMALL
NO_CHARGES


@<TRIPOS>ATOM
   1 N1            -0.0159     1.3231     0.0093 N.2     
   2 C2             0.0021    -0.0041     0.0020 C.ar    
   3 C3             1.3539    -0.4303    -0.0132 C.ar    
   4 N4             1.3009     1.8036    -0.0007 N.pl3   
   5 C5            -1.0087    -1.0007     0.0059 C.ar    
   6 N6            -0.6439    -2.2723    -0.0048 N.ar    
   7 C7             0.6389    -2.6272    -0.0189 C.ar    
   8 N8             1.6186    -1.7466    -0.0232 N.ar    
   9 C9             1.8042     3.0716     0.0013 C.2     
  10 C10            2.1499     0.7283    -0.0146 C.2     
  11 C11            3.5362     0.9289    -0.0263 C.2     
  12 C12            4.0284     2.2019    -0.0238 C.2     
  13 C13            3.1387     3.2853    -0.0107 C.2     
  14 N14           -2.3444    -0.6503     0.0210 N.pl3   
  15 N15            0.9564    -3.9769    -0.0296 N.pl3   
  16 C16           -3.3749    -1.6916     0.0248 C.3     
  17 C17           -5.7330    -2.2258     0.6542 C.3     
  18 C18           -6.0163    -2.6682    -0.7828 C.3     
  19 C19           -4.7343    -3.2216    -1.4082 C.3     
  20 C20           -3.6582    -2.1340    -1.4122 C.3     
  21 C21           -4.6569    -1.1383     0.6502 C.3     
  22 C22           -7.0925    -3.7558    -0.7788 C.3     
  23 H23            1.1287     3.9141     0.0123 H       
  24 H24            4.2091     0.0843    -0.0369 H       
  25 H25            5.0947     2.3732    -0.0324 H       
  26 H26            3.5214     4.2952    -0.0096 H       
  27 H27           -2.6004     0.2853     0.0290 H       
  28 H28            0.2498    -4.6414    -0.0267 H       
  29 H29            1.8852    -4.2565    -0.0400 H       
  30 H30           -3.0264    -2.5455     0.6058 H       
  31 H31           -6.6463    -1.8316     1.0997 H       
  32 H32           -5.3845    -3.0797     1.2352 H       
  33 H33           -6.3648    -1.8144    -1.3638 H       
  34 H34           -4.3858    -4.0754    -0.8272 H       
  35 H35           -4.9362    -3.5367    -2.4320 H       
  36 H36           -4.0067    -1.2802    -1.9932 H       
  37 H37           -2.7449    -2.5283    -1.8578 H       
  38 H38           -4.4550    -0.8231     1.6739 H       
  39 H39           -5.0054    -0.2844     0.0692 H       
  40 H40           -8.0058    -3.3615    -0.3333 H       
  41 H41           -7.2943    -4.0709    -1.8026 H       
  42 H42           -6.7440    -4.6096    -0.1978 H       
@<TRIPOS>BOND
   1    1    2 2
   2    1    4 1
   3    2    3 ar
   4    2    5 ar
   5    3   10 2
   6    3    8 ar
   7    4   10 1
   8    4    9 1
   9    5    6 ar
  10    5   14 1
  11    6    7 ar
  12    7    8 ar
  13    7   15 1
  14    9   13 2
  15    9   23 1
  16   10   11 1
  17   11   12 2
  18   11   24 1
  19   12   13 1
  20   12   25 1
  21   13   26 1
  22   14   16 1
  23   14   27 1
  24   15   28 1
  25   15   29 1
  26   16   21 1
  27   16   20 1
  28   16   30 1
  29   17   18 1
  30   17   21 1
  31   17   31 1
  32   17   32 1
  33   18   19 1
  34   18   22 1
  35   18   33 1
  36   19   20 1
  37   19   34 1
  38   19   35 1
  39   20   36 1
  40   20   37 1
  41   21   38 1
  42   21   39 1
  43   22   40 1
  44   22   41 1
  45   22   42 1

#	End of record

