#	Name: ASD04990001
#	Creating user name:	WinNT
#	Creation time:	15. 06. 2019 20:56

#	Modifying user name:	WinNT
#	Modification time:	15. 06. 2019 20:56

#	Program:	/corina/corina34_cracker 3.40 0067  02.08.2006

@<TRIPOS>MOLECULE
ASD04990001
  62   66    0    0    0
SMALL
NO_CHARGES


@<TRIPOS>ATOM
   1 C1            -0.9494     0.3262     0.4078 C.3     
   2 C2            -0.6218    -1.1502     0.1757 C.3     
   3 C3             0.1282    -1.3040    -1.1489 C.3     
   4 C4             1.4262    -0.4956    -1.0970 C.3     
   5 C5             1.0985     0.9807    -0.8649 C.3     
   6 C6             0.3485     1.1346     0.4598 C.3     
   7 C7             0.4558    -2.7804    -1.3810 C.3     
   8 C8             1.0582    -2.9518    -2.7517 C.ar    
   9 C9             2.3017    -3.5490    -2.8817 C.ar    
  10 C10            2.8522    -3.7047    -4.1445 C.ar    
  11 C11            2.1325    -3.2536    -5.2395 C.ar    
  12 C12            0.8876    -2.6625    -5.0343 C.ar    
  13 N13            0.3940    -2.5374    -3.8085 N.ar    
  14 C14            0.1058    -2.1751    -6.1942 C.2     
  15 O15            0.5882    -2.2079    -7.3091 O.2     
  16 N16           -1.1406    -1.6953    -6.0130 N.am    
  17 C17           -1.9094    -1.3156    -7.1149 C.ar    
  18 C18           -2.9863    -0.4528    -6.9453 C.ar    
  19 C19           -1.5931    -1.7966    -8.3809 C.ar    
  20 C20           -2.3497    -1.4232    -9.4699 C.ar    
  21 C21           -3.4347    -0.5612    -9.3018 C.ar    
  22 C22           -3.7467    -0.0759    -8.0311 C.ar    
  23 C23           -3.3228     0.0705    -5.5727 C.3     
  24 C24           -2.4910     1.2933    -5.2834 C.ar    
  25 C25           -2.2242     3.6726    -5.3066 C.ar    
  26 C26           -2.9872     2.5509    -5.5719 C.ar    
  27 C27           -1.2340     1.1578    -4.7244 C.ar    
  28 C28           -0.4710     2.2796    -4.4591 C.ar    
  29 C29           -0.9647     3.5368    -4.7532 C.ar    
  30 C30           -4.2490    -0.1586   -10.4692 C.2     
  31 N31           -4.0609    -0.5453   -11.7557 N.pl3   
  32 N32           -5.2969     0.6386   -10.4554 N.2     
  33 N33           -5.7702     0.7794   -11.6408 N.2     
  34 N34           -5.0777     0.0950   -12.4855 N.2     
  35 H35           -1.5732     0.6925    -0.4075 H       
  36 H36           -1.4838     0.4358     1.3515 H       
  37 H37            0.0020    -1.5164     0.9911 H       
  38 H38           -1.5465    -1.7261     0.1387 H       
  39 H39           -0.4956    -0.9377    -1.9643 H       
  40 H40            2.0499    -0.8619    -0.2816 H       
  41 H41            1.9605    -0.6052    -2.0407 H       
  42 H42            2.0232     1.5567    -0.8279 H       
  43 H43            0.4748     1.3470    -1.6803 H       
  44 H44            0.1151     2.1864     0.6251 H       
  45 H45            0.9723     0.7683     1.2751 H       
  46 H46            1.1668    -3.1177    -0.6268 H       
  47 H47           -0.4576    -3.3709    -1.3091 H       
  48 H48            2.8371    -3.8896    -2.0078 H       
  49 H49            3.8200    -4.1668    -4.2720 H       
  50 H50            2.5311    -3.3584    -6.2378 H       
  51 H51           -1.5035    -1.6139    -5.1172 H       
  52 H52           -0.7533    -2.4632    -8.5104 H       
  53 H53           -2.1033    -1.7968   -10.4529 H       
  54 H54           -4.5831     0.5943    -7.8988 H       
  55 H55           -4.3801     0.3325    -5.5328 H       
  56 H56           -3.1105    -0.6976    -4.8290 H       
  57 H57           -2.6117     4.6551    -5.5323 H       
  58 H58           -3.9709     2.6570    -6.0049 H       
  59 H59           -0.8482     0.1756    -4.4946 H       
  60 H60            0.5108     2.1738    -4.0217 H       
  61 H61           -0.3686     4.4132    -4.5459 H       
  62 H62           -3.3725    -1.1364   -12.0986 H       
@<TRIPOS>BOND
   1    1    2 1
   2    1    6 1
   3    1   35 1
   4    1   36 1
   5    2    3 1
   6    2   37 1
   7    2   38 1
   8    3    4 1
   9    3    7 1
  10    3   39 1
  11    4    5 1
  12    4   40 1
  13    4   41 1
  14    5    6 1
  15    5   42 1
  16    5   43 1
  17    6   44 1
  18    6   45 1
  19    7    8 1
  20    7   46 1
  21    7   47 1
  22    8    9 ar
  23    8   13 ar
  24    9   10 ar
  25    9   48 1
  26   10   11 ar
  27   10   49 1
  28   11   12 ar
  29   11   50 1
  30   12   13 ar
  31   12   14 1
  32   14   15 2
  33   14   16 am
  34   16   17 1
  35   16   51 1
  36   17   18 ar
  37   17   19 ar
  38   18   22 ar
  39   18   23 1
  40   19   20 ar
  41   19   52 1
  42   20   21 ar
  43   20   53 1
  44   21   22 ar
  45   21   30 1
  46   22   54 1
  47   23   24 1
  48   23   55 1
  49   23   56 1
  50   24   26 ar
  51   24   27 ar
  52   25   26 ar
  53   25   29 ar
  54   25   57 1
  55   26   58 1
  56   27   28 ar
  57   27   59 1
  58   28   29 ar
  59   28   60 1
  60   29   61 1
  61   30   31 1
  62   30   32 2
  63   31   34 1
  64   31   62 1
  65   32   33 1
  66   33   34 2

#	End of record

