#	Name: ASD02408051
#	Creating user name:	WinNT
#	Creation time:	15. 06. 2019 20:21

#	Modifying user name:	WinNT
#	Modification time:	15. 06. 2019 20:21

#	Program:	/corina/corina34_cracker 3.40 0067  02.08.2006

@<TRIPOS>MOLECULE
ASD02408051
  39   41    0    0    0
SMALL
NO_CHARGES


@<TRIPOS>ATOM
   1 C1             0.5399     0.6357    -0.0714 C.2     
   2 C2             0.7866    -0.6589    -0.2777 C.2     
   3 C3             1.6301     1.6760    -0.0551 C.3     
   4 C4             1.8315     2.2143    -1.4482 C.2     
   5 N5             2.7677     3.1615    -1.6512 N.am    
   6 N6             1.0968     1.7434    -2.4190 N.2     
   7 C7             1.2321     2.1838    -3.6764 C.2     
   8 C8             2.1865     3.1752    -3.9583 C.2     
   9 C9             2.9751     3.6656    -2.8859 C.2     
  10 N10            0.4467     1.6713    -4.6796 N.pl3   
  11 C11            1.0031     1.4117    -6.0161 C.3     
  12 O12            3.8178     4.5258    -3.0744 O.2     
  13 S13           -0.7217    -1.5622    -0.2265 S.3     
  14 C14           -1.6293    -0.0873     0.0813 C.2     
  15 C15           -0.7940     0.9519     0.1209 C.2     
  16 C16            0.6515    -0.0243    -6.4192 C.3     
  17 N17           -0.7995    -0.2212    -6.3016 N.3     
  18 C18           -1.2472    -0.0667    -4.9110 C.3     
  19 C19           -0.9718     1.3618    -4.4443 C.3     
  20 C20           -1.1990    -1.5277    -6.8412 C.3     
  21 C21            2.3618     3.6723    -5.2897 C.1     
  22 N22            2.5009     4.0666    -6.3459 N.1     
  23 H23            1.7630    -1.0868    -0.4502 H       
  24 H24            1.3454     2.4902     0.6114 H       
  25 H25            2.5575     1.2250     0.2977 H       
  26 H26            3.2963     3.4838    -0.9045 H       
  27 H27            0.5722     2.1095    -6.7340 H       
  28 H28            2.0864     1.5301    -5.9910 H       
  29 H29           -2.6997    -0.0311     0.2133 H       
  30 H30           -1.1318     1.9623     0.2977 H       
  31 H31            0.9597    -0.1985    -7.4501 H       
  32 H32            1.1679    -0.7236    -5.7616 H       
  33 H33           -2.3159    -0.2717    -4.8481 H       
  34 H34           -0.7043    -0.7654    -4.2744 H       
  35 H35           -1.1958     1.4492    -3.3811 H       
  36 H36           -1.5910     2.0577    -5.0103 H       
  37 H37           -0.6930    -2.3192    -6.2885 H       
  38 H38           -2.2778    -1.6475    -6.7416 H       
  39 H39           -0.9226    -1.5859    -7.8940 H       
@<TRIPOS>BOND
   1    1    2 2
   2    1    3 1
   3    1   15 1
   4    2   13 1
   5    2   23 1
   6    3    4 1
   7    3   24 1
   8    3   25 1
   9    4    5 1
  10    4    6 2
  11    5    9 am
  12    5   26 1
  13    6    7 1
  14    7    8 2
  15    7   10 1
  16    8    9 1
  17    8   21 1
  18    9   12 2
  19   10   11 1
  20   10   19 1
  21   11   16 1
  22   11   27 1
  23   11   28 1
  24   13   14 1
  25   14   15 2
  26   14   29 1
  27   15   30 1
  28   16   17 1
  29   16   31 1
  30   16   32 1
  31   17   18 1
  32   17   20 1
  33   18   19 1
  34   18   33 1
  35   18   34 1
  36   19   35 1
  37   19   36 1
  38   20   37 1
  39   20   38 1
  40   20   39 1
  41   21   22 3

#	End of record

