#	Name: ASD01917856
#	Creating user name:	WinNT
#	Creation time:	15. 06. 2019 20:10

#	Modifying user name:	WinNT
#	Modification time:	15. 06. 2019 20:10

#	Program:	/corina/corina34_cracker 3.40 0067  02.08.2006

@<TRIPOS>MOLECULE
ASD01917856
  39   42    0    0    0
SMALL
NO_CHARGES


@<TRIPOS>ATOM
   1 C1             0.0103     1.2672    -0.1060 C.2     
   2 C2            -0.0075    -0.0787    -0.0910 C.2     
   3 C3            -1.2933    -0.8890    -0.0310 C.3     
   4 C4            -2.4260     0.0051     0.4789 C.3     
   5 N5            -2.3919     1.2850    -0.2448 N.am    
   6 C6            -1.2150     2.1508    -0.0541 C.3     
   7 C7            -3.4039     1.6536    -1.0549 C.2     
   8 O8            -4.3109     0.8771    -1.2870 O.2     
   9 S9             1.6813     1.8075    -0.1873 S.3     
  10 C10            2.2138     0.1833    -0.1896 C.2     
  11 N11            1.2051    -0.6135    -0.1356 N.2     
  12 C12            3.6554    -0.2521    -0.2472 C.3     
  13 O13            4.0522    -0.4066    -1.6113 O.3     
  14 C14            5.3332    -0.7981    -1.8407 C.ar    
  15 C15            5.7857    -0.9677    -3.1411 C.ar    
  16 C16            7.0883    -1.3658    -3.3716 C.ar    
  17 C17            7.9409    -1.5951    -2.3076 C.ar    
  18 C18            7.4922    -1.4273    -1.0105 C.ar    
  19 C19            6.1923    -1.0234    -0.7749 C.ar    
  20 C20           -3.4117     2.9966    -1.6592 C.2     
  21 C21           -4.3186     3.3862    -2.5832 C.2     
  22 S22           -3.9908     5.0032    -3.0304 S.3     
  23 C23           -2.6627     5.0659    -1.9587 C.2     
  24 N24           -2.5269     3.9453    -1.3415 N.2     
  25 H25           -1.5393    -1.2563    -1.0272 H       
  26 H26           -1.1613    -1.7321     0.6471 H       
  27 H27           -3.3837    -0.4858     0.3061 H       
  28 H28           -2.2953     0.1861     1.5458 H       
  29 H29           -1.2740     2.6482     0.9140 H       
  30 H30           -1.1685     2.8933    -0.8507 H       
  31 H31            4.2818     0.5013     0.2303 H       
  32 H32            3.7689    -1.2026     0.2741 H       
  33 H33            5.1200    -0.7890    -3.9726 H       
  34 H34            7.4409    -1.4983    -4.3838 H       
  35 H35            8.9589    -1.9063    -2.4898 H       
  36 H36            8.1599    -1.6077    -0.1810 H       
  37 H37            5.8423    -0.8923     0.2384 H       
  38 H38           -5.1190     2.7758    -2.9746 H       
  39 H39           -2.0273     5.9275    -1.8163 H       
@<TRIPOS>BOND
   1    1    2 2
   2    1    9 1
   3    1    6 1
   4    2    3 1
   5    2   11 1
   6    3    4 1
   7    3   25 1
   8    3   26 1
   9    4    5 1
  10    4   27 1
  11    4   28 1
  12    5    6 1
  13    5    7 am
  14    6   29 1
  15    6   30 1
  16    7    8 2
  17    7   20 1
  18    9   10 1
  19   10   11 2
  20   10   12 1
  21   12   13 1
  22   12   31 1
  23   12   32 1
  24   13   14 1
  25   14   15 ar
  26   14   19 ar
  27   15   16 ar
  28   15   33 1
  29   16   17 ar
  30   16   34 1
  31   17   18 ar
  32   17   35 1
  33   18   19 ar
  34   18   36 1
  35   19   37 1
  36   20   21 2
  37   20   24 1
  38   21   22 1
  39   21   38 1
  40   22   23 1
  41   23   24 2
  42   23   39 1

#	End of record

