#	Name: ASD01150821
#	Creating user name:	WinNT
#	Creation time:	15. 06. 2019 19:05

#	Modifying user name:	WinNT
#	Modification time:	15. 06. 2019 19:05

#	Program:	/corina/corina34_cracker 3.40 0067  02.08.2006

@<TRIPOS>MOLECULE
ASD01150821
  56   57    0    0    0
SMALL
NO_CHARGES


@<TRIPOS>ATOM
   1 C1             0.2910     0.0779    -0.9370 C.ar    
   2 N2             0.4115    -1.1649    -0.4915 N.ar    
   3 C3             1.6015    -1.6718    -0.2164 C.ar    
   4 C4             2.7298    -0.8870    -0.3991 C.ar    
   5 C5             2.5679     0.4079    -0.8661 C.ar    
   6 N6             1.3493     0.8540    -1.1223 N.ar    
   7 C7             3.7659     1.2970    -1.0791 C.3     
   8 S8            -1.3134     0.7105    -1.2980 S.3     
   9 C9            -0.8774     2.3801    -1.8443 C.3     
  10 C10           -2.1495     3.1418    -2.2216 C.3     
  11 C11           -1.7809     4.5531    -2.6835 C.3     
  12 C12           -3.0530     5.3148    -3.0608 C.3     
  13 C13           -2.6844     6.7261    -3.5226 C.3     
  14 C14           -3.9566     7.4878    -3.8999 C.3     
  15 C15            1.7298    -3.0854     0.2900 C.3     
  16 N16            1.5363    -3.1032     1.7462 N.3     
  17 C17            2.5926    -2.3433     2.4267 C.3     
  18 C18            2.4434    -2.5040     3.9413 C.3     
  19 C19            1.0648    -1.9944     4.3704 C.3     
  20 C20           -0.0160    -2.7691     3.6113 C.3     
  21 C21            0.2044    -2.6006     2.1063 C.3     
  22 C22           -0.8616    -3.3896     1.3435 C.3     
  23 C23            3.9613    -2.8699     1.9905 C.3     
  24 H24            3.7135    -1.2761    -0.1817 H       
  25 H25            4.1343     1.1726    -2.0974 H       
  26 H26            3.4794     2.3367    -0.9209 H       
  27 H27            4.5505     1.0249    -0.3731 H       
  28 H28           -0.3658     2.9045    -1.0372 H       
  29 H29           -0.2200     2.3185    -2.7117 H       
  30 H30           -2.6611     2.6174    -3.0287 H       
  31 H31           -2.8068     3.2034    -1.3543 H       
  32 H32           -1.2693     5.0775    -1.8764 H       
  33 H33           -1.1236     4.4915    -3.5508 H       
  34 H34           -3.5646     4.7904    -3.8678 H       
  35 H35           -3.7104     5.3764    -2.1934 H       
  36 H36           -2.1728     7.2504    -2.7155 H       
  37 H37           -2.0271     6.6644    -4.3899 H       
  38 H38           -4.6139     7.5494    -3.0326 H       
  39 H39           -3.6940     8.4932    -4.2289 H       
  40 H40           -4.4682     6.9634    -4.7070 H       
  41 H41            0.9741    -3.7113    -0.1846 H       
  42 H42            2.7217    -3.4685     0.0505 H       
  43 H43            2.5085    -1.2889     2.1634 H       
  44 H44            2.5412    -3.5566     4.2069 H       
  45 H45            3.2181    -1.9272     4.4465 H       
  46 H46            0.9375    -2.1469     5.4422 H       
  47 H47            0.9812    -0.9322     4.1402 H       
  48 H48            0.0430    -3.8259     3.8718 H       
  49 H49           -0.9986    -2.3816     3.8808 H       
  50 H50            0.1315    -1.5450     1.8445 H       
  51 H51           -0.7139    -4.4564     1.5116 H       
  52 H52           -1.8510    -3.0996     1.6974 H       
  53 H53           -0.7796    -3.1749     0.2780 H       
  54 H54            4.1225    -2.6350     0.9384 H       
  55 H55            4.7398    -2.3996     2.5912 H       
  56 H56            3.9966    -3.9502     2.1312 H       
@<TRIPOS>BOND
   1    1    2 ar
   2    1    6 ar
   3    1    8 1
   4    2    3 ar
   5    3    4 ar
   6    3   15 1
   7    4    5 ar
   8    4   24 1
   9    5    6 ar
  10    5    7 1
  11    7   25 1
  12    7   26 1
  13    7   27 1
  14    8    9 1
  15    9   10 1
  16    9   28 1
  17    9   29 1
  18   10   11 1
  19   10   30 1
  20   10   31 1
  21   11   12 1
  22   11   32 1
  23   11   33 1
  24   12   13 1
  25   12   34 1
  26   12   35 1
  27   13   14 1
  28   13   36 1
  29   13   37 1
  30   14   38 1
  31   14   39 1
  32   14   40 1
  33   15   16 1
  34   15   41 1
  35   15   42 1
  36   16   17 1
  37   16   21 1
  38   17   18 1
  39   17   23 1
  40   17   43 1
  41   18   19 1
  42   18   44 1
  43   18   45 1
  44   19   20 1
  45   19   46 1
  46   19   47 1
  47   20   21 1
  48   20   48 1
  49   20   49 1
  50   21   22 1
  51   21   50 1
  52   22   51 1
  53   22   52 1
  54   22   53 1
  55   23   54 1
  56   23   55 1
  57   23   56 1

#	End of record

