#	Name: ASD01911897
#	Creating user name:	WinNT
#	Creation time:	15. 06. 2019 19:58

#	Modifying user name:	WinNT
#	Modification time:	15. 06. 2019 19:58

#	Program:	/corina/corina34_cracker 3.40 0067  02.08.2006

@<TRIPOS>MOLECULE
ASD01911897
  36   38    0    0    0
SMALL
NO_CHARGES


@<TRIPOS>ATOM
   1 C1            -1.0507    -0.5013    -2.0867 C.ar    
   2 C2            -1.0553     0.0490    -0.8090 C.ar    
   3 C3            -1.0158     1.4343    -0.6876 C.ar    
   4 N4            -0.9754     2.1738    -1.7837 N.ar    
   5 C5            -0.9724     1.6147    -2.9771 C.ar    
   6 N6            -1.0091     0.3066    -3.1334 N.ar    
   7 O7            -1.0979    -0.7463     0.2923 O.3     
   8 C8            -1.1390    -2.0917     0.1064 C.ar    
   9 C9             0.0166    -2.7814    -0.2350 C.ar    
  10 C10           -0.0237    -4.1494    -0.4243 C.ar    
  11 C11           -1.2135    -4.8355    -0.2746 C.ar    
  12 C12           -2.3729    -4.1509     0.0674 C.ar    
  13 C13           -2.3334    -2.7773     0.2631 C.ar    
  14 N14           -3.5772    -4.8454     0.2189 N.am    
  15 C15           -4.7436    -4.2487    -0.0972 C.2     
  16 C16           -6.0229    -4.9431     0.1610 C.ar    
  17 O17           -4.7436    -3.1395    -0.5945 O.2     
  18 C18           -6.0245    -6.2176     0.7324 C.ar    
  19 C19           -7.2186    -6.8681     0.9738 C.ar    
  20 C20           -8.4179    -6.2646     0.6528 C.ar    
  21 C21           -8.4310    -4.9896     0.0806 C.ar    
  22 C22           -7.2299    -4.3252    -0.1599 C.ar    
  23 C23           -9.6759    -4.3650    -0.2522 C.1     
  24 N24          -10.6635    -3.8696    -0.5163 N.1     
  25 H25           -1.0761    -1.5724    -2.2220 H       
  26 H26           -1.0183     1.8992     0.2872 H       
  27 H27           -0.9392     2.2467    -3.8523 H       
  28 H28            0.9481    -2.2477    -0.3531 H       
  29 H29            0.8766    -4.6834    -0.6902 H       
  30 H30           -1.2423    -5.9048    -0.4238 H       
  31 H31           -3.2332    -2.2426     0.5294 H       
  32 H32           -3.5730    -5.7566     0.5514 H       
  33 H33           -5.0898    -6.6957     0.9856 H       
  34 H34           -7.2140    -7.8536     1.4155 H       
  35 H35           -9.3481    -6.7790     0.8440 H       
  36 H36           -7.2342    -3.3396    -0.6016 H       
@<TRIPOS>BOND
   1    1    2 ar
   2    1    6 ar
   3    1   25 1
   4    2    3 ar
   5    2    7 1
   6    3    4 ar
   7    3   26 1
   8    4    5 ar
   9    5    6 ar
  10    5   27 1
  11    7    8 1
  12    8    9 ar
  13    8   13 ar
  14    9   10 ar
  15    9   28 1
  16   10   11 ar
  17   10   29 1
  18   11   12 ar
  19   11   30 1
  20   12   13 ar
  21   12   14 1
  22   13   31 1
  23   14   15 am
  24   14   32 1
  25   15   16 1
  26   15   17 2
  27   16   18 ar
  28   16   22 ar
  29   18   19 ar
  30   18   33 1
  31   19   20 ar
  32   19   34 1
  33   20   21 ar
  34   20   35 1
  35   21   22 ar
  36   21   23 1
  37   22   36 1
  38   23   24 3

#	End of record

