#	Name: ASD09320012
#	Creating user name:	WinNT
#	Creation time:	15. 06. 2019 21:21

#	Modifying user name:	WinNT
#	Modification time:	15. 06. 2019 21:21

#	Program:	/corina/corina34_cracker 3.40 0067  02.08.2006

@<TRIPOS>MOLECULE
ASD09320012
  46   49    0    0    0
SMALL
NO_CHARGES


@<TRIPOS>ATOM
   1 C1            -0.0179     1.4692     0.0101 C.2     
   2 C2             0.0021    -0.0041     0.0020 C.2     
   3 C3             1.1483    -0.6560    -0.1051 C.2     
   4 C4             1.2586     2.1853     0.0018 C.2     
   5 C5             2.4140     1.5009    -0.0810 C.2     
   6 C6             3.7022     2.2191    -0.0211 C.2     
   7 C7             4.7762     1.5883     0.8426 C.3     
   8 C8             4.8564     0.0916     0.5196 C.3     
   9 C9             5.8522    -0.5689     1.4573 C.3     
  10 C10            7.3088    -0.1132     1.3008 C.3     
  11 C11            8.1024    -1.3209     1.8696 C.3     
  12 C12            7.1905    -2.5377     1.7499 C.2     
  13 C13            5.9564    -2.0607     1.0422 C.3     
  14 C14            6.1564    -2.1633    -0.4712 C.3     
  15 C15            4.6474    -2.7212     1.4305 C.3     
  16 C16            3.5471    -2.0816     0.5706 C.3     
  17 C17            3.4879    -0.5672     0.7526 C.3     
  18 C18            2.4743     0.0098    -0.2387 C.3     
  19 C19            3.0073    -0.2885    -1.6415 C.3     
  20 O20           -1.0732     2.0776     0.0184 O.2     
  21 O21            7.4159    -3.6567     2.1440 O.2     
  22 C22            3.9092     3.3568    -0.6886 C.2     
  23 H23            5.1764    -0.0455    -0.5133 H       
  24 H24            3.1479    -0.3404     1.7631 H       
  25 H25            5.5281    -0.4642     2.4927 H       
  26 H26           -0.9235    -0.5545     0.0842 H       
  27 H27            1.1211    -1.7356    -0.0946 H       
  28 H28            1.2731     3.2636     0.0618 H       
  29 H29            5.7367     2.0591     0.6329 H       
  30 H30            4.5240     1.7218     1.8946 H       
  31 H31            7.5525     0.0503     0.2511 H       
  32 H32            7.4983     0.7855     1.8878 H       
  33 H33            9.0114    -1.4771     1.2888 H       
  34 H34            8.3530    -1.1436     2.9155 H       
  35 H35            7.0733    -1.6454    -0.7525 H       
  36 H36            6.2290    -3.2124    -0.7578 H       
  37 H37            5.3092    -1.7050    -0.9815 H       
  38 H38            4.6984    -3.7919     1.2327 H       
  39 H39            4.4421    -2.5468     2.4867 H       
  40 H40            3.7420    -2.3052    -0.4783 H       
  41 H41            2.5847    -2.5101     0.8500 H       
  42 H42            2.3117     0.1009    -2.3849 H       
  43 H43            3.9796     0.1871    -1.7695 H       
  44 H44            3.1102    -1.3661    -1.7696 H       
  45 H45            3.1212     3.7780    -1.2952 H       
  46 H46            4.8647     3.8558    -0.6218 H       
@<TRIPOS>BOND
   1    1    2 1
   2    1    4 1
   3    1   20 2
   4    2    3 2
   5    2   26 1
   6    3   18 1
   7    3   27 1
   8    4    5 2
   9    4   28 1
  10    5    6 1
  11    5   18 1
  12    6    7 1
  13    6   22 2
  14    7    8 1
  15    7   29 1
  16    7   30 1
  17    8    9 1
  18    8   23 1
  19    8   17 1
  20    9   10 1
  21    9   13 1
  22    9   25 1
  23   10   11 1
  24   10   31 1
  25   10   32 1
  26   11   12 1
  27   11   33 1
  28   11   34 1
  29   12   13 1
  30   12   21 2
  31   13   14 1
  32   13   15 1
  33   14   35 1
  34   14   36 1
  35   14   37 1
  36   15   16 1
  37   15   38 1
  38   15   39 1
  39   16   17 1
  40   16   40 1
  41   16   41 1
  42   17   24 1
  43   17   18 1
  44   18   19 1
  45   19   42 1
  46   19   43 1
  47   19   44 1
  48   22   45 1
  49   22   46 1

#	End of record

