#	Name: ASD05790131
#	Creating user name:	WinNT
#	Creation time:	15. 06. 2019 21:03

#	Modifying user name:	WinNT
#	Modification time:	15. 06. 2019 21:03

#	Program:	/corina/corina34_cracker 3.40 0067  02.08.2006

@<TRIPOS>MOLECULE
ASD05790131
  45   48    0    0    0
SMALL
NO_CHARGES


@<TRIPOS>ATOM
   1 C1            -0.3506     2.3358     0.8195 C.ar    
   2 C2            -0.5008     0.9678     1.0577 C.ar    
   3 C3             0.6257     0.1444     1.1159 C.ar    
   4 C4             1.8810     0.6834     0.9384 C.ar    
   5 C5             2.0272     2.0460     0.7019 C.ar    
   6 C6             0.9075     2.8686     0.6429 C.ar    
   7 N7             3.3009     2.5892     0.5228 N.am    
   8 C8            -1.8485     0.3932     1.2481 C.2     
   9 O9            -3.0036     1.0802     1.2146 O.3     
  10 N10           -2.1141    -0.8713     1.4718 N.2     
  11 C11           -3.4504    -1.0154     1.5912 C.2     
  12 C12           -4.0095     0.2103     1.4297 C.2     
  13 C13           -4.1764    -2.2838     1.8486 C.ar    
  14 C14           -3.4708    -3.4769     1.9913 C.ar    
  15 C15           -4.1511    -4.6536     2.2305 C.ar    
  16 C16           -5.5309    -4.6501     2.3287 C.ar    
  17 C17           -6.2364    -3.4687     2.1878 C.ar    
  18 C18           -5.5659    -2.2852     1.9541 C.ar    
  19 C19            3.4751     3.6412    -0.3014 C.2     
  20 O20            2.5396     4.0655    -0.9515 O.2     
  21 C21            4.8036     4.2791    -0.4150 C.ar    
  22 C22            5.8434     3.8881     0.4300 C.ar    
  23 C23            5.0255     5.2712    -1.3719 C.ar    
  24 C24            6.2678     5.8621    -1.4729 C.ar    
  25 C25            7.2929     5.4735    -0.6285 C.ar    
  26 C26            7.0813     4.4873     0.3183 C.ar    
  27 C27            3.9104     5.6953    -2.2926 C.3     
  28 H28           -1.2201     2.9745     0.7695 H       
  29 H29            0.5128    -0.9138     1.3002 H       
  30 H30            2.7525     0.0472     0.9833 H       
  31 H31            1.0244     3.9264     0.4594 H       
  32 H32            4.0605     2.2095     0.9917 H       
  33 H33           -5.0632     0.4445     1.4667 H       
  34 H34           -2.3935    -3.4808     1.9145 H       
  35 H35           -3.6053    -5.5790     2.3409 H       
  36 H36           -6.0593    -5.5733     2.5156 H       
  37 H37           -7.3136    -3.4717     2.2650 H       
  38 H38           -6.1176    -1.3633     1.8447 H       
  39 H39            5.6794     3.1186     1.1698 H       
  40 H40            6.4409     6.6294    -2.2129 H       
  41 H41            8.2639     5.9390    -0.7120 H       
  42 H42            7.8856     4.1886     0.9743 H       
  43 H43            3.2752     6.4205    -1.7840 H       
  44 H44            4.3324     6.1482    -3.1898 H       
  45 H45            3.3171     4.8240    -2.5701 H       
@<TRIPOS>BOND
   1    1    2 ar
   2    1    6 ar
   3    1   28 1
   4    2    3 ar
   5    2    8 1
   6    3    4 ar
   7    3   29 1
   8    4    5 ar
   9    4   30 1
  10    5    6 ar
  11    5    7 1
  12    6   31 1
  13    7   19 am
  14    7   32 1
  15    8    9 1
  16    8   10 2
  17    9   12 1
  18   10   11 1
  19   11   12 2
  20   11   13 1
  21   12   33 1
  22   13   14 ar
  23   13   18 ar
  24   14   15 ar
  25   14   34 1
  26   15   16 ar
  27   15   35 1
  28   16   17 ar
  29   16   36 1
  30   17   18 ar
  31   17   37 1
  32   18   38 1
  33   19   20 2
  34   19   21 1
  35   21   22 ar
  36   21   23 ar
  37   22   26 ar
  38   22   39 1
  39   23   24 ar
  40   23   27 1
  41   24   25 ar
  42   24   40 1
  43   25   26 ar
  44   25   41 1
  45   26   42 1
  46   27   43 1
  47   27   44 1
  48   27   45 1

#	End of record

