#	Name: ASD05313203
#	Creating user name:	WinNT
#	Creation time:	15. 06. 2019 20:58

#	Modifying user name:	WinNT
#	Modification time:	15. 06. 2019 20:58

#	Program:	/corina/corina34_cracker 3.40 0067  02.08.2006

@<TRIPOS>MOLECULE
ASD05313203
  37   40    0    0    0
SMALL
NO_CHARGES


@<TRIPOS>ATOM
   1 C1            -0.0431     0.8363     0.9981 C.2     
   2 C2             0.1291    -0.6053     0.5822 C.3     
   3 N3             0.9688     1.7388     1.0208 N.pl3   
   4 N4             1.4731    -0.7235    -0.0142 N.am    
   5 C5             2.5924    -0.0486     0.6604 C.3     
   6 C6             2.3539     1.4660     0.6412 C.3     
   7 N7            -0.8597     2.6731     1.6660 N.2     
   8 N8            -1.1237     1.4416     1.3925 N.2     
   9 C9             0.4208     2.9089     1.4551 C.2     
  10 S10            2.7937     4.5218     1.3883 S.3     
  11 N11            2.6825     6.1520     1.8559 N.2     
  12 C12            1.4329     6.3446     2.1746 C.2     
  13 N13            0.6116     5.3311     2.0736 N.2     
  14 C14            1.1239     4.1894     1.6536 C.2     
  15 C15            1.6699    -1.4303    -1.1448 C.2     
  16 O16            2.7637    -1.4362    -1.6753 O.2     
  17 C17            0.5564    -2.1977    -1.7394 C.ar    
  18 C18            0.3197    -2.1374    -3.1146 C.ar    
  19 C19           -0.7218    -2.8569    -3.6646 C.ar    
  20 C20           -1.5328    -3.6387    -2.8524 C.ar    
  21 C21           -1.3007    -3.7007    -1.4877 C.ar    
  22 C22           -0.2591    -2.9901    -0.9295 C.ar    
  23 C23            1.1991    -1.2882    -3.9958 C.3     
  24 F24           -2.5518    -4.3408    -3.3946 F       
  25 F25           -0.9528    -2.8002    -4.9945 F       
  26 H26            0.0501    -1.2557     1.4533 H       
  27 H27           -0.6292    -0.8733    -0.1534 H       
  28 H28            2.6572    -0.3940     1.6922 H       
  29 H29            3.5224    -0.2774     0.1400 H       
  30 H30            2.5395     1.8513    -0.3614 H       
  31 H31            3.0275     1.9496     1.3487 H       
  32 H32            1.0867     7.3104     2.5117 H       
  33 H33           -1.9343    -4.3103    -0.8606 H       
  34 H34           -0.0770    -3.0433     0.1337 H       
  35 H35            2.0895    -1.8528    -4.2726 H       
  36 H36            0.6510    -1.0097    -4.8959 H       
  37 H37            1.4930    -0.3878    -3.4562 H       
@<TRIPOS>BOND
   1    1    2 1
   2    1    3 1
   3    1    8 2
   4    2    4 1
   5    2   26 1
   6    2   27 1
   7    3    6 1
   8    3    9 1
   9    4    5 1
  10    4   15 am
  11    5    6 1
  12    5   28 1
  13    5   29 1
  14    6   30 1
  15    6   31 1
  16    7    8 1
  17    7    9 2
  18    9   14 1
  19   10   11 1
  20   10   14 1
  21   11   12 2
  22   12   13 1
  23   12   32 1
  24   13   14 2
  25   15   16 2
  26   15   17 1
  27   17   18 ar
  28   17   22 ar
  29   18   19 ar
  30   18   23 1
  31   19   20 ar
  32   19   25 1
  33   20   21 ar
  34   20   24 1
  35   21   22 ar
  36   21   33 1
  37   22   34 1
  38   23   35 1
  39   23   36 1
  40   23   37 1

#	End of record

