#	Name: ASD09116405
#	Creating user name:	WinNT
#	Creation time:	15. 06. 2019 21:21

#	Modifying user name:	WinNT
#	Modification time:	15. 06. 2019 21:21

#	Program:	/corina/corina34_cracker 3.40 0067  02.08.2006

@<TRIPOS>MOLECULE
ASD09116405
  78   84    0    0    0
SMALL
NO_CHARGES


@<TRIPOS>ATOM
   1 N1            -0.0161     1.5821     1.2208 N.2     
   2 N2            -0.4942     0.6701     0.2661 N.pl3   
   3 C3             1.1368     2.0270     0.7814 C.2     
   4 N4             1.4091     1.4468    -0.3933 N.2     
   5 C5             0.4341     0.6250    -0.7180 C.2     
   6 N6             0.3693    -0.1478    -1.8619 N.pl3   
   7 C7            -1.6904    -0.0484     0.3212 C.ar    
   8 N8             1.9482     2.9558     1.4333 N.pl3   
   9 C9             3.2111     3.2671     0.9157 C.ar    
  10 C10            3.9355     2.2963     0.2231 C.ar    
  11 C11            3.7283     4.5300     1.0879 C.ar    
  12 C12            5.0040     4.8567     0.5687 C.ar    
  13 C13            5.7219     3.8708    -0.1196 C.ar    
  14 C14            5.1746     2.5947    -0.2877 C.ar    
  15 N15           -2.2610    -0.4722    -0.7962 N.ar    
  16 N16           -3.3706    -1.1194    -0.8001 N.ar    
  17 C17           -4.0167    -1.4023     0.3243 C.ar    
  18 C18           -3.4695    -1.0335     1.5503 C.ar    
  19 C19           -2.2828    -0.3257     1.5552 C.ar    
  20 C20           -5.3454    -2.0539     0.2861 C.ar    
  21 C21           -6.4162    -1.4731     0.9736 C.ar    
  22 S22           -6.1662     0.0500     1.8247 S.3     
  23 C23           -5.1878    -0.4440     3.2767 C.3     
  24 C24           -4.1234    -1.4516     2.8317 C.3     
  25 C25           -5.5388    -3.2366    -0.4212 C.ar    
  26 C26           -6.7838    -3.8351    -0.4242 C.ar    
  27 C27           -7.8366    -3.2676     0.2726 C.ar    
  28 C28           -7.6580    -2.0885     0.9725 C.ar    
  29 C29            5.6959     6.0766     0.6406 C.2     
  30 C30            6.8971     6.0941     0.0538 C.2     
  31 S31            7.2629     4.5316    -0.6560 S.3     
  32 C32            7.7891     7.2617     0.0099 C.2     
  33 O33            7.3358     8.3647    -0.2300 O.2     
  34 N34            9.1092     7.1101     0.2353 N.am    
  35 C35           10.0054     8.2753     0.2845 C.3     
  36 C36            9.6909     5.7755     0.4446 C.3     
  37 C37           10.5280     5.8052     1.7279 C.3     
  38 N38           11.5021     6.9019     1.6480 N.3     
  39 C39           10.8294     8.2015     1.5743 C.3     
  40 C40           12.4370     6.8590     2.7803 C.3     
  41 C41           13.5776     7.8496     2.5377 C.3     
  42 N42           14.5125     7.8067     3.6700 N.3     
  43 C43           15.7364     8.5621     3.3710 C.3     
  44 C44           13.8754     8.3012     4.8978 C.3     
  45 H45            1.0874    -0.1117    -2.5130 H       
  46 H46           -0.3943    -0.7264    -2.0138 H       
  47 H47            1.6373     3.3858     2.2453 H       
  48 H48            3.5209     1.3081     0.0889 H       
  49 H49            3.1582     5.2761     1.6216 H       
  50 H50            5.7322     1.8376    -0.8189 H       
  51 H51           -1.8337     0.0076     2.4792 H       
  52 H52           -4.7040     0.4328     3.7071 H       
  53 H53           -5.8406    -0.9051     4.0178 H       
  54 H54           -4.5921    -2.4255     2.6908 H       
  55 H55           -3.3635    -1.5330     3.6089 H       
  56 H56           -4.7201    -3.6839    -0.9652 H       
  57 H57           -6.9369    -4.7519    -0.9741 H       
  58 H58           -8.8036    -3.7486     0.2696 H       
  59 H59           -8.4817    -1.6498     1.5160 H       
  60 H60            5.2848     6.9434     1.1367 H       
  61 H61           10.6724     8.2609    -0.5775 H       
  62 H62            9.4151     9.1916     0.2789 H       
  63 H63            8.8929     5.0399     0.5450 H       
  64 H64           10.3272     5.5166    -0.4016 H       
  65 H65            9.8736     5.9617     2.5854 H       
  66 H66           11.0552     4.8579     1.8403 H       
  67 H67           11.5745     8.9971     1.5710 H       
  68 H68           10.1731     8.3209     2.4365 H       
  69 H69           11.9109     7.1279     3.6963 H       
  70 H70           12.8443     5.8526     2.8773 H       
  71 H71           14.1037     7.5807     1.6217 H       
  72 H72           13.1703     8.8560     2.4407 H       
  73 H73           15.4810     9.6021     3.1678 H       
  74 H74           16.4110     8.5140     4.2258 H       
  75 H75           16.2253     8.1308     2.4975 H       
  76 H76           13.0114     7.6802     5.1343 H       
  77 H77           14.5894     8.2586     5.7202 H       
  78 H78           13.5525     9.3318     4.7499 H       
@<TRIPOS>BOND
   1    1    2 1
   2    1    3 2
   3    2    7 1
   4    2    5 1
   5    3    4 1
   6    3    8 1
   7    4    5 2
   8    5    6 1
   9    6   45 1
  10    6   46 1
  11    7   15 ar
  12    7   19 ar
  13    8    9 1
  14    8   47 1
  15    9   10 ar
  16    9   11 ar
  17   10   14 ar
  18   10   48 1
  19   11   12 ar
  20   11   49 1
  21   12   13 ar
  22   12   29 1
  23   13   14 ar
  24   13   31 1
  25   14   50 1
  26   15   16 ar
  27   16   17 ar
  28   17   18 ar
  29   17   20 1
  30   18   19 ar
  31   18   24 1
  32   19   51 1
  33   20   21 ar
  34   20   25 ar
  35   21   22 1
  36   21   28 ar
  37   22   23 1
  38   23   24 1
  39   23   52 1
  40   23   53 1
  41   24   54 1
  42   24   55 1
  43   25   26 ar
  44   25   56 1
  45   26   27 ar
  46   26   57 1
  47   27   28 ar
  48   27   58 1
  49   28   59 1
  50   29   30 2
  51   29   60 1
  52   30   31 1
  53   30   32 1
  54   32   33 2
  55   32   34 am
  56   34   35 1
  57   34   36 1
  58   35   39 1
  59   35   61 1
  60   35   62 1
  61   36   37 1
  62   36   63 1
  63   36   64 1
  64   37   38 1
  65   37   65 1
  66   37   66 1
  67   38   39 1
  68   38   40 1
  69   39   67 1
  70   39   68 1
  71   40   41 1
  72   40   69 1
  73   40   70 1
  74   41   42 1
  75   41   71 1
  76   41   72 1
  77   42   43 1
  78   42   44 1
  79   43   73 1
  80   43   74 1
  81   43   75 1
  82   44   76 1
  83   44   77 1
  84   44   78 1

#	End of record

