#	Name: ASD09116347
#	Creating user name:	WinNT
#	Creation time:	15. 06. 2019 21:21

#	Modifying user name:	WinNT
#	Modification time:	15. 06. 2019 21:21

#	Program:	/corina/corina34_cracker 3.40 0067  02.08.2006

@<TRIPOS>MOLECULE
ASD09116347
  77   83    0    0    0
SMALL
NO_CHARGES


@<TRIPOS>ATOM
   1 N1            -0.0876     1.5886    -0.4522 N.2     
   2 N2            -0.1215     0.2676    -0.9271 N.pl3   
   3 C3             1.1715     1.9550    -0.4294 C.2     
   4 N4             1.9289     0.9403    -0.8626 N.2     
   5 C5             1.1632    -0.0856    -1.1669 C.2     
   6 N6             1.5944    -1.3079    -1.6460 N.pl3   
   7 C7            -1.2555    -0.5247    -1.1149 C.ar    
   8 N8             1.6449     3.2015    -0.0198 N.pl3   
   9 C9             3.0231     3.4335     0.0654 C.ar    
  10 C10            3.5297     4.7041    -0.1770 C.ar    
  11 C11            3.8826     2.3950     0.3975 C.ar    
  12 C12            5.2427     2.6232     0.4822 C.ar    
  13 C13            5.7508     3.8904     0.2349 C.ar    
  14 C14            4.8901     4.9327    -0.0928 C.ar    
  15 N15            7.1303     4.1215     0.3214 N.3     
  16 F16            5.3843     6.1667    -0.3342 F       
  17 N17           -1.2326    -1.5166    -1.9925 N.ar    
  18 N18           -2.2518    -2.2693    -2.2101 N.ar    
  19 C19           -3.3938    -2.0943    -1.5647 C.ar    
  20 C20           -3.5045    -1.0851    -0.6039 C.ar    
  21 C21           -2.4128    -0.2751    -0.3729 C.ar    
  22 C22           -4.5861    -2.9250    -1.8522 C.ar    
  23 C23           -5.8088    -2.2929    -2.0833 C.ar    
  24 C24           -5.8728    -0.7901    -2.0900 C.3     
  25 C25           -5.8435    -0.2252    -0.6724 C.3     
  26 C26           -4.7820    -0.9292     0.1685 C.3     
  27 C27           -4.5021    -4.3124    -1.8897 C.ar    
  28 C28           -5.6373    -5.0596    -2.1377 C.ar    
  29 C29           -6.8511    -4.4301    -2.3456 C.ar    
  30 C30           -6.9373    -3.0489    -2.3175 C.ar    
  31 C31            7.4250     5.2168     1.2664 C.3     
  32 C32            7.6928     4.2768    -0.9487 C.3     
  33 C33            9.2358     4.3061    -0.8920 C.3     
  34 C34            9.6843     5.6624    -0.4105 C.3     
  35 C35            9.8916     5.7106     1.1164 C.3     
  36 C36            8.7821     4.9593     1.8718 C.3     
  37 N37            8.7733     5.3995     3.2732 N.3     
  38 C38            7.8149     4.6107     4.0689 C.3     
  39 C39           10.1144     5.2623     3.8801 C.3     
  40 C40            9.8431     4.8991     5.3613 C.3     
  41 C41            8.6017     3.9772     5.2356 C.3     
  42 H42            2.5409    -1.4675    -1.7861 H       
  43 H43            0.9506    -2.0064    -1.8423 H       
  44 H44            1.0193     3.9075     0.2061 H       
  45 H45            2.8608     5.5129    -0.4314 H       
  46 H46            3.4878     1.4084     0.5902 H       
  47 H47            5.9105     1.8149     0.7414 H       
  48 H48           -2.4531     0.5270     0.3492 H       
  49 H49           -5.0214    -0.3994    -2.6472 H       
  50 H50           -6.7936    -0.4746    -2.5806 H       
  51 H51           -5.6186     0.8405    -0.7154 H       
  52 H52           -6.8201    -0.3667    -0.2095 H       
  53 H53           -5.1487    -1.9142     0.4573 H       
  54 H54           -4.5886    -0.3422     1.0664 H       
  55 H55           -3.5543    -4.8034    -1.7254 H       
  56 H56           -5.5767    -6.1374    -2.1697 H       
  57 H57           -7.7369    -5.0196    -2.5309 H       
  58 H58           -7.8885    -2.5637    -2.4794 H       
  59 H59            7.4332     6.1688     0.7356 H       
  60 H60            6.6695     5.2389     2.0518 H       
  61 H61            7.3762     3.4476    -1.5813 H       
  62 H62            7.3355     5.2102    -1.3837 H       
  63 H63            9.5900     3.5391    -0.2033 H       
  64 H64            9.6408     4.1199    -1.8867 H       
  65 H65           10.6233     5.9177    -0.9017 H       
  66 H66            8.9321     6.4010    -0.6874 H       
  67 H67           10.8536     5.2587     1.3581 H       
  68 H68            9.8991     6.7513     1.4405 H       
  69 H69            8.9898     3.8898     1.8375 H       
  70 H70            7.0328     5.2617     4.4594 H       
  71 H71            7.3749     3.8284     3.4504 H       
  72 H72           10.6729     4.4648     3.3900 H       
  73 H73           10.6591     6.2041     3.8140 H       
  74 H74           10.6872     4.3608     5.7923 H       
  75 H75            9.6106     5.7896     5.9454 H       
  76 H76            8.0130     3.9963     6.1527 H       
  77 H77            8.9015     2.9584     4.9900 H       
@<TRIPOS>BOND
   1    1    2 1
   2    1    3 2
   3    2    7 1
   4    2    5 1
   5    3    4 1
   6    3    8 1
   7    4    5 2
   8    5    6 1
   9    6   42 1
  10    6   43 1
  11    7   17 ar
  12    7   21 ar
  13    8    9 1
  14    8   44 1
  15    9   10 ar
  16    9   11 ar
  17   10   14 ar
  18   10   45 1
  19   11   12 ar
  20   11   46 1
  21   12   13 ar
  22   12   47 1
  23   13   14 ar
  24   13   15 1
  25   14   16 1
  26   15   32 1
  27   15   31 1
  28   17   18 ar
  29   18   19 ar
  30   19   20 ar
  31   19   22 1
  32   20   21 ar
  33   20   26 1
  34   21   48 1
  35   22   23 ar
  36   22   27 ar
  37   23   24 1
  38   23   30 ar
  39   24   25 1
  40   24   49 1
  41   24   50 1
  42   25   26 1
  43   25   51 1
  44   25   52 1
  45   26   53 1
  46   26   54 1
  47   27   28 ar
  48   27   55 1
  49   28   29 ar
  50   28   56 1
  51   29   30 ar
  52   29   57 1
  53   30   58 1
  54   31   36 1
  55   31   59 1
  56   31   60 1
  57   32   33 1
  58   32   61 1
  59   32   62 1
  60   33   34 1
  61   33   63 1
  62   33   64 1
  63   34   35 1
  64   34   65 1
  65   34   66 1
  66   35   36 1
  67   35   67 1
  68   35   68 1
  69   36   37 1
  70   36   69 1
  71   37   38 1
  72   37   39 1
  73   38   41 1
  74   38   70 1
  75   38   71 1
  76   39   40 1
  77   39   72 1
  78   39   73 1
  79   40   41 1
  80   40   74 1
  81   40   75 1
  82   41   76 1
  83   41   77 1

#	End of record

