#	Name: ASD01150358
#	Creating user name:	WinNT
#	Creation time:	15. 06. 2019 19:04

#	Modifying user name:	WinNT
#	Modification time:	15. 06. 2019 19:04

#	Program:	/corina/corina34_cracker 3.40 0067  02.08.2006

@<TRIPOS>MOLECULE
ASD01150358
  50   52    0    0    0
SMALL
NO_CHARGES


@<TRIPOS>ATOM
   1 C1             0.3805     1.5257     0.7458 C.ar    
   2 C2             0.4560     0.1761     1.0298 C.ar    
   3 C3             1.2861    -0.6435     0.2891 C.ar    
   4 C4             2.0476    -0.1122    -0.7441 C.ar    
   5 C5             1.9737     1.2431    -1.0324 C.ar    
   6 C6             1.1393     2.0635    -0.2868 C.ar    
   7 N7             1.0619     3.4311    -0.5743 N.am    
   8 C8            -0.1428     4.0149    -0.7032 C.2     
   9 N9            -0.2509     5.3282    -0.9790 N.am    
  10 C10            0.8591     6.0799    -1.1310 C.2     
  11 C11            2.1741     5.4484    -0.9916 C.2     
  12 N12            2.2394     4.1744    -0.7183 N.2     
  13 C13            3.4330     6.2602    -1.1560 C.3     
  14 O14            0.7693     7.2677    -1.3813 O.2     
  15 C15           -1.5745     5.9413    -1.1146 C.3     
  16 O16           -1.1495     3.3465    -0.5689 O.2     
  17 N17            2.8886    -0.9427    -1.4930 N.am    
  18 C18            2.5154    -2.2084    -1.7675 C.2     
  19 C19            3.3714    -3.0695    -2.6602 C.3     
  20 O20            1.4908    -2.6543    -1.2961 O.2     
  21 C21           -2.0358     6.4430     0.2295 C.ar    
  22 C22           -1.7341     7.7323     0.6264 C.ar    
  23 C23           -2.1570     8.1930     1.8590 C.ar    
  24 C24           -2.8823     7.3635     2.6956 C.ar    
  25 C25           -3.1838     6.0732     2.2978 C.ar    
  26 C26           -2.7653     5.6155     1.0626 C.ar    
  27 Cl27          -3.4132     7.9412     4.2442 Cl      
  28 C28            4.6483     5.3869    -0.8377 C.3     
  29 C29            3.5305     6.7640    -2.5974 C.3     
  30 H30           -0.2724     2.1629     1.3239 H       
  31 H31           -0.1347    -0.2395     1.8328 H       
  32 H32            1.3432    -1.6983     0.5139 H       
  33 H33            2.5650     1.6587    -1.8349 H       
  34 H34            3.4084     7.1108    -0.4747 H       
  35 H35           -1.5186     6.7753    -1.8141 H       
  36 H36           -2.2815     5.2005    -1.4882 H       
  37 H37            3.7401    -0.6076    -1.8147 H       
  38 H38            4.2433    -2.5018    -2.9852 H       
  39 H39            3.6971    -3.9522    -2.1098 H       
  40 H40            2.7929    -3.3774    -3.5312 H       
  41 H41           -1.1677     8.3797    -0.0266 H       
  42 H42           -1.9209     9.2002     2.1692 H       
  43 H43           -3.7500     5.4251     2.9505 H       
  44 H44           -3.0007     4.6082     0.7519 H       
  45 H45            4.6729     4.5364    -1.5190 H       
  46 H46            5.5589     5.9741    -0.9566 H       
  47 H47            4.5789     5.0280     0.1892 H       
  48 H48            3.5551     5.9135    -3.2786 H       
  49 H49            2.6647     7.3862    -2.8241 H       
  50 H50            4.4410     7.3512    -2.7163 H       
@<TRIPOS>BOND
   1    1    2 ar
   2    1    6 ar
   3    1   30 1
   4    2    3 ar
   5    2   31 1
   6    3    4 ar
   7    3   32 1
   8    4    5 ar
   9    4   17 1
  10    5    6 ar
  11    5   33 1
  12    6    7 1
  13    7    8 am
  14    7   12 1
  15    8    9 am
  16    8   16 2
  17    9   10 am
  18    9   15 1
  19   10   11 1
  20   10   14 2
  21   11   12 2
  22   11   13 1
  23   13   28 1
  24   13   29 1
  25   13   34 1
  26   15   21 1
  27   15   35 1
  28   15   36 1
  29   17   18 am
  30   17   37 1
  31   18   19 1
  32   18   20 2
  33   19   38 1
  34   19   39 1
  35   19   40 1
  36   21   22 ar
  37   21   26 ar
  38   22   23 ar
  39   22   41 1
  40   23   24 ar
  41   23   42 1
  42   24   25 ar
  43   24   27 1
  44   25   26 ar
  45   25   43 1
  46   26   44 1
  47   28   45 1
  48   28   46 1
  49   28   47 1
  50   29   48 1
  51   29   49 1
  52   29   50 1

#	End of record

