#	Name: ASD02039435
#	Creating user name:	WinNT
#	Creation time:	15. 06. 2019 20:18

#	Modifying user name:	WinNT
#	Modification time:	15. 06. 2019 20:18

#	Program:	/corina/corina34_cracker 3.40 0067  02.08.2006

@<TRIPOS>MOLECULE
ASD02039435
  48   51    0    0    0
SMALL
NO_CHARGES


@<TRIPOS>ATOM
   1 C1             0.1498     1.1862     0.0762 C.ar    
   2 C2             0.4315    -0.1672     0.1949 C.ar    
   3 C3             1.2614     2.2020     0.0152 C.3     
   4 N4             1.7337     2.3265    -1.3660 N.am    
   5 C5             1.2465     3.3007    -2.1596 C.2     
   6 C6             0.1674     4.1773    -1.6720 C.2     
   7 C7            -0.4870     5.1301    -2.3966 C.2     
   8 N8            -0.3609     4.1799    -0.4215 N.2     
   9 C9            -1.2923     5.0873    -0.3599 C.2     
  10 N10           -1.3968     5.6967    -1.5695 N.pl3   
  11 O11            1.6976     3.4563    -3.2783 O.2     
  12 C12           -2.3266     6.7743    -1.9166 C.3     
  13 C13            2.7358     1.3920    -1.8845 C.3     
  14 C14           -0.6106    -1.0747     0.2485 C.ar    
  15 C15           -2.1745     0.6131     0.0633 C.ar    
  16 C16           -1.1750     1.5821     0.0094 C.ar    
  17 C17           -3.5988     1.0209    -0.0075 C.ar    
  18 C18           -3.9346     2.3679    -0.1333 C.ar    
  19 N19           -1.8631    -0.6707     0.1880 N.ar    
  20 C20           -4.6047     0.0579     0.0457 C.ar    
  21 C21           -5.9301     0.4427    -0.0206 C.ar    
  22 C22           -6.2586     1.7855    -0.1405 C.ar    
  23 C23           -5.2604     2.7440    -0.1989 C.ar    
  24 C24            2.3154     0.7011    -3.1925 C.3     
  25 C25            3.7688     0.8798    -3.6620 C.3     
  26 C26            3.8518     2.0724    -2.6946 C.3     
  27 F27           -6.9068    -0.4892     0.0309 F       
  28 F28           -7.5555     2.1585    -0.2060 F       
  29 H29            1.4549    -0.5088     0.2446 H       
  30 H30            0.8910     3.1671     0.3609 H       
  31 H31            2.0842     1.8789     0.6529 H       
  32 H32           -0.3124     5.3840    -3.4317 H       
  33 H33           -1.8880     5.3164     0.5113 H       
  34 H34           -1.8592     7.7374    -1.7119 H       
  35 H35           -2.5783     6.7101    -2.9752 H       
  36 H36           -3.2342     6.6769    -1.3208 H       
  37 H37            3.1041     0.7021    -1.1252 H       
  38 H38           -0.3947    -2.1288     0.3409 H       
  39 H39           -1.4299     2.6267    -0.0917 H       
  40 H40           -3.1575     3.1166    -0.1790 H       
  41 H41           -4.3487    -0.9872     0.1383 H       
  42 H42           -5.5205     3.7881    -0.2919 H       
  43 H43            2.0237    -0.3409    -3.0617 H       
  44 H44            1.5944     1.2734    -3.7763 H       
  45 H45            4.4209     0.0501    -3.3891 H       
  46 H46            3.8572     1.1617    -4.7112 H       
  47 H47            3.5509     3.0196    -3.1424 H       
  48 H48            4.8006     2.1374    -2.1620 H       
@<TRIPOS>BOND
   1    1    2 ar
   2    1    3 1
   3    1   16 ar
   4    2   14 ar
   5    2   29 1
   6    3    4 1
   7    3   30 1
   8    3   31 1
   9    4    5 am
  10    4   13 1
  11    5    6 1
  12    5   11 2
  13    6    7 2
  14    6    8 1
  15    7   10 1
  16    7   32 1
  17    8    9 2
  18    9   10 1
  19    9   33 1
  20   10   12 1
  21   12   34 1
  22   12   35 1
  23   12   36 1
  24   13   24 1
  25   13   26 1
  26   13   37 1
  27   14   19 ar
  28   14   38 1
  29   15   16 ar
  30   15   17 1
  31   15   19 ar
  32   16   39 1
  33   17   20 ar
  34   17   18 ar
  35   18   23 ar
  36   18   40 1
  37   20   21 ar
  38   20   41 1
  39   21   22 ar
  40   21   27 1
  41   22   23 ar
  42   22   28 1
  43   23   42 1
  44   24   25 1
  45   24   43 1
  46   24   44 1
  47   25   26 1
  48   25   45 1
  49   25   46 1
  50   26   47 1
  51   26   48 1

#	End of record

