#	Name: ASD04880387
#	Creating user name:	WinNT
#	Creation time:	15. 06. 2019 20:53

#	Modifying user name:	WinNT
#	Modification time:	15. 06. 2019 20:53

#	Program:	/corina/corina34_cracker 3.40 0067  02.08.2006

@<TRIPOS>MOLECULE
ASD04880387
  50   53    0    0    0
SMALL
NO_CHARGES


@<TRIPOS>ATOM
   1 C1            -0.0143     1.3817     0.0537 C.ar    
   2 C2             0.0028     0.0001    -0.0071 C.ar    
   3 C3             1.2040    -0.6781    -0.0368 C.ar    
   4 C4             2.4051     0.0324    -0.0055 C.ar    
   5 C5             2.3833     1.4268     0.0558 C.ar    
   6 C6             1.1740     2.0944     0.0851 C.ar    
   7 C7             3.6948    -0.6888    -0.0366 C.2     
   8 O8             3.7146    -1.9024     0.0363 O.2     
   9 N9             4.8489    -0.0014    -0.1457 N.am    
  10 C10            6.2000    -0.5795    -0.0700 C.3     
  11 N11            4.9575     1.3720    -0.3546 N.2     
  12 C12            6.1708     1.7994    -0.4244 C.2     
  13 C13            7.1256     0.6392    -0.2556 C.3     
  14 F14            1.1498     3.4439     0.1444 F       
  15 C15            6.5673     3.2036    -0.6396 C.ar    
  16 C16            7.9209     3.5486    -0.6980 C.ar    
  17 C17            8.2931     4.8624    -0.8994 C.ar    
  18 C18            7.3330     5.8444    -1.0449 C.ar    
  19 C19            5.9771     5.5143    -0.9887 C.ar    
  20 C20            5.5933     4.1897    -0.7911 C.ar    
  21 C21            4.9511     6.5677    -1.1438 C.2     
  22 N22            5.3240     7.8480    -1.3396 N.am    
  23 O23            3.7714     6.2790    -1.0947 O.2     
  24 C24            4.3074     8.8917    -1.4932 C.3     
  25 C25            4.8878    10.2570    -1.0849 C.3     
  26 C26            4.8077    11.1609    -2.3324 C.3     
  27 C27            3.6772    10.5326    -3.1847 C.3     
  28 C28            3.8948     9.0135    -2.9747 C.3     
  29 H29           -0.9574     1.9076     0.0722 H       
  30 H30           -0.9267    -0.5494    -0.0309 H       
  31 H31            1.2149    -1.7570    -0.0838 H       
  32 H32            3.3092     1.9823     0.0807 H       
  33 H33            6.3654    -1.0420     0.9030 H       
  34 H34            6.3531    -1.3029    -0.8708 H       
  35 H35            7.7504     0.7834     0.6258 H       
  36 H36            7.7417     0.5184    -1.1466 H       
  37 H37            8.6768     2.7856    -0.5850 H       
  38 H38            9.3401     5.1237    -0.9430 H       
  39 H39            7.6314     6.8704    -1.2022 H       
  40 H40            4.5461     3.9291    -0.7469 H       
  41 H41            6.2654     8.0784    -1.3788 H       
  42 H42            3.4369     8.6577    -0.8804 H       
  43 H43            4.2984    10.6860    -0.2745 H       
  44 H44            5.9258    10.1431    -0.7724 H       
  45 H45            4.5493    12.1810    -2.0485 H       
  46 H46            5.7513    11.1430    -2.8777 H       
  47 H47            2.6987    10.8376    -2.8137 H       
  48 H48            3.7929    10.7977    -4.2356 H       
  49 H49            4.6910     8.6489    -3.6236 H       
  50 H50            2.9702     8.4666    -3.1594 H       
@<TRIPOS>BOND
   1    1    2 ar
   2    1    6 ar
   3    1   29 1
   4    2    3 ar
   5    2   30 1
   6    3    4 ar
   7    3   31 1
   8    4    5 ar
   9    4    7 1
  10    5    6 ar
  11    5   32 1
  12    6   14 1
  13    7    8 2
  14    7    9 am
  15    9   10 1
  16    9   11 1
  17   10   13 1
  18   10   33 1
  19   10   34 1
  20   11   12 2
  21   12   13 1
  22   12   15 1
  23   13   35 1
  24   13   36 1
  25   15   16 ar
  26   15   20 ar
  27   16   17 ar
  28   16   37 1
  29   17   18 ar
  30   17   38 1
  31   18   19 ar
  32   18   39 1
  33   19   20 ar
  34   19   21 1
  35   20   40 1
  36   21   22 am
  37   21   23 2
  38   22   24 1
  39   22   41 1
  40   24   25 1
  41   24   28 1
  42   24   42 1
  43   25   26 1
  44   25   43 1
  45   25   44 1
  46   26   27 1
  47   26   45 1
  48   26   46 1
  49   27   28 1
  50   27   47 1
  51   27   48 1
  52   28   49 1
  53   28   50 1

#	End of record

