#	Name: ASD02030178
#	Creating user name:	WinNT
#	Creation time:	15. 06. 2019 20:14

#	Modifying user name:	WinNT
#	Modification time:	15. 06. 2019 20:14

#	Program:	/corina/corina34_cracker 3.40 0067  02.08.2006

@<TRIPOS>MOLECULE
ASD02030178
  74   79    0    0    0
SMALL
NO_CHARGES


@<TRIPOS>ATOM
   1 N1            -0.3588     1.4453    -0.3955 N.am    
   2 C2            -0.3882    -0.0234    -0.3532 C.3     
   3 C3            -1.1733    -0.4623     0.8891 C.3     
   4 N4            -2.4453     0.2730     0.9248 N.am    
   5 C5            -2.4158     1.7417     0.8824 C.3     
   6 C6            -1.6305     2.1807    -0.3542 C.3     
   7 C7             0.8138     2.1062    -0.4653 C.2     
   8 C8             2.0881     1.3618    -0.3781 C.2     
   9 N9             3.2908     1.8914    -0.3165 N.2     
  10 N10            2.2219     0.0233    -0.3420 N.2     
  11 C11            3.5020    -0.2377    -0.2648 C.2     
  12 N12            4.1581     0.9408    -0.2498 N.pl3   
  13 O13            0.8235     3.3142    -0.5999 O.2     
  14 C14           -3.6178    -0.3879     0.9946 C.2     
  15 C15           -3.6379    -1.8629     0.9426 C.ar    
  16 O16           -4.6591     0.2309     1.1003 O.2     
  17 C17           -1.3541     3.6837    -0.2802 C.3     
  18 C18           -2.4387     1.8651    -1.6145 C.3     
  19 C19           -2.7475    -2.5985     1.7228 C.ar    
  20 C20           -2.7732    -3.9814     1.6686 C.ar    
  21 C21           -3.6943    -4.6355     0.8296 C.ar    
  22 C22           -4.5823    -3.8815     0.0529 C.ar    
  23 C23           -4.5563    -2.5212     0.1132 C.ar    
  24 C24            5.5480     1.1037    -0.1747 C.ar    
  25 C25            6.0997     2.3779    -0.1672 C.ar    
  26 C26            6.3759    -0.0086    -0.1018 C.ar    
  27 C27            7.7453     0.1552    -0.0280 C.ar    
  28 C28            8.2920     1.4253    -0.0260 C.ar    
  29 C29            7.4699     2.5352    -0.0932 C.ar    
  30 N30           -2.0506    -4.9804     2.2926 N.pl3   
  31 C31           -2.5287    -6.1680     1.8380 C.2     
  32 N32           -3.4898    -5.9667     0.9826 N.2     
  33 C33           -0.9694    -4.7935     3.2633 C.3     
  34 C34           -2.0203    -7.5218     2.2618 C.3     
  35 C35           -2.8096    -8.0045     3.4803 C.3     
  36 C36           -2.3873    -9.4378     3.8480 C.3     
  37 C37           -1.8211    -9.3763     5.2816 C.3     
  38 C38           -2.4745    -8.1126     5.8942 C.3     
  39 C39           -2.4853    -7.1221     4.7034 C.3     
  40 H40           -0.8776    -0.4055    -1.2491 H       
  41 H41            0.6301    -0.4083    -0.2973 H       
  42 H42           -1.3709    -1.5330     0.8376 H       
  43 H43           -0.5954    -0.2371     1.7855 H       
  44 H44           -3.4341     2.1265     0.8265 H       
  45 H45           -1.9264     2.1238     1.7783 H       
  46 H46            3.9514    -1.2186    -0.2187 H       
  47 H47           -0.6833     3.8891     0.5540 H       
  48 H48           -0.8900     4.0140    -1.2095 H       
  49 H49           -2.2922     4.2188    -0.1324 H       
  50 H50           -3.3884     2.3991    -1.5802 H       
  51 H51           -1.8770     2.1789    -2.4943 H       
  52 H52           -2.6265     0.7927    -1.6666 H       
  53 H53           -2.0418    -2.0928     2.3651 H       
  54 H54           -5.2910    -4.3793    -0.5924 H       
  55 H55           -5.2438    -1.9450    -0.4882 H       
  56 H56            5.4581     3.2451    -0.2196 H       
  57 H57            5.9494    -1.0009    -0.1026 H       
  58 H58            8.3897    -0.7096     0.0287 H       
  59 H59            9.3631     1.5508     0.0325 H       
  60 H60            7.8998     3.5259    -0.0915 H       
  61 H61           -1.3860    -4.7645     4.2701 H       
  62 H62           -0.2643    -5.6211     3.1856 H       
  63 H63           -0.4533    -3.8560     3.0564 H       
  64 H64           -2.1469    -8.2301     1.4430 H       
  65 H65           -0.9636    -7.4489     2.5189 H       
  66 H66           -3.8785    -7.9728     3.2690 H       
  67 H67           -3.2513   -10.1015     3.8159 H       
  68 H68           -1.6200    -9.7895     3.1583 H       
  69 H69           -2.1085   -10.2649     5.8437 H       
  70 H70           -0.7363    -9.2722     5.2593 H       
  71 H71           -3.4898    -8.3260     6.2284 H       
  72 H72           -1.8703    -7.7242     6.7141 H       
  73 H73           -1.5078    -6.6540     4.5876 H       
  74 H74           -3.2575    -6.3656     4.8435 H       
@<TRIPOS>BOND
   1    1    2 1
   2    1    7 am
   3    1    6 1
   4    2    3 1
   5    2   40 1
   6    2   41 1
   7    3    4 1
   8    3   42 1
   9    3   43 1
  10    4    5 1
  11    4   14 am
  12    5    6 1
  13    5   44 1
  14    5   45 1
  15    6   17 1
  16    6   18 1
  17    7    8 1
  18    7   13 2
  19    8    9 2
  20    8   10 1
  21    9   12 1
  22   10   11 2
  23   11   12 1
  24   11   46 1
  25   12   24 1
  26   14   15 1
  27   14   16 2
  28   15   19 ar
  29   15   23 ar
  30   17   47 1
  31   17   48 1
  32   17   49 1
  33   18   50 1
  34   18   51 1
  35   18   52 1
  36   19   20 ar
  37   19   53 1
  38   20   21 ar
  39   20   30 1
  40   21   22 ar
  41   21   32 1
  42   22   23 ar
  43   22   54 1
  44   23   55 1
  45   24   25 ar
  46   24   26 ar
  47   25   29 ar
  48   25   56 1
  49   26   27 ar
  50   26   57 1
  51   27   28 ar
  52   27   58 1
  53   28   29 ar
  54   28   59 1
  55   29   60 1
  56   30   31 1
  57   30   33 1
  58   31   32 2
  59   31   34 1
  60   33   61 1
  61   33   62 1
  62   33   63 1
  63   34   35 1
  64   34   64 1
  65   34   65 1
  66   35   36 1
  67   35   39 1
  68   35   66 1
  69   36   37 1
  70   36   67 1
  71   36   68 1
  72   37   38 1
  73   37   69 1
  74   37   70 1
  75   38   39 1
  76   38   71 1
  77   38   72 1
  78   39   73 1
  79   39   74 1

#	End of record

