#	Name: ASD00431403
#	Creating user name:	WinNT
#	Creation time:	15. 06. 2019 18:35

#	Modifying user name:	WinNT
#	Modification time:	15. 06. 2019 18:35

#	Program:	/corina/corina34_cracker 3.40 0067  02.08.2006

@<TRIPOS>MOLECULE
ASD00431403
  57   58    0    0    0
SMALL
NO_CHARGES


@<TRIPOS>ATOM
   1 C1            -1.0105    -0.4470     0.7684 C.2     
   2 N2             0.0013    -0.0061    -0.0052 N.am    
   3 O3            -0.8664    -1.4448     1.4468 O.2     
   4 O4            -2.1791     0.2215     0.7938 O.3     
   5 C5             1.2556    -0.6275     0.0605 C.ar    
   6 C6             2.0353    -0.7407    -1.0828 C.ar    
   7 C7             3.2713    -1.3526    -1.0173 C.ar    
   8 C8             3.7343    -1.8543     0.1906 C.ar    
   9 C9             2.9556    -1.7414     1.3333 C.ar    
  10 C10            1.7216    -1.1250     1.2701 C.ar    
  11 O11            4.9512    -2.4571     0.2544 O.3     
  12 S12            7.6480    -2.2970    -0.0629 S.3     
  13 C13            6.0488    -1.6991     0.0236 C.2     
  14 N14            6.0369    -0.4141    -0.1641 N.2     
  15 C15            7.1926     0.1712    -0.3762 C.2     
  16 C16            8.2518    -0.6702    -0.3680 C.2     
  17 C17            9.6575    -0.2939    -0.5771 C.2     
  18 N18            9.9931     1.0297    -0.8078 N.pl3   
  19 N19           10.5900    -1.2081    -0.5453 N.2     
  20 O20           11.7546    -0.8964    -0.7185 O.3     
  21 C21           12.6619    -1.8825    -0.6734 C.2     
  22 C22           14.1223    -1.5728    -0.8787 C.3     
  23 C23           14.5912    -0.5898     0.1959 C.3     
  24 O24           12.3073    -3.0234    -0.4674 O.2     
  25 N25           14.9020    -2.8094    -0.7829 N.am    
  26 C26           16.0958    -2.9030    -1.4014 C.2     
  27 O27           16.5246    -1.9635    -2.0373 O.2     
  28 C28           16.8977    -4.1751    -1.3029 C.3     
  29 C29           -3.2244    -0.3107     1.6496 C.3     
  30 C30           -2.7337    -0.3360     3.0986 C.3     
  31 C31           -4.4675     0.5754     1.5476 C.3     
  32 C32           -3.5735    -1.7323     1.2045 C.3     
  33 H33           -0.1388     0.7412    -0.6075 H       
  34 H34            1.6749    -0.3505    -2.0231 H       
  35 H35            3.8778    -1.4410    -1.9066 H       
  36 H36            3.3164    -2.1321     2.2733 H       
  37 H37            1.1173    -1.0335     2.1605 H       
  38 H38            7.2896     1.2338    -0.5431 H       
  39 H39            9.3007     1.7085    -0.8314 H       
  40 H40           10.9206     1.2779    -0.9457 H       
  41 H41           14.2646    -1.1290    -1.8641 H       
  42 H42           14.4489    -1.0336     1.1812 H       
  43 H43           15.6475    -0.3657     0.0473 H       
  44 H44           14.0111     0.3303     0.1246 H       
  45 H45           14.5590    -3.5608    -0.2744 H       
  46 H46           16.3558    -4.9002    -0.6958 H       
  47 H47           17.0560    -4.5831    -2.3012 H       
  48 H48           17.8615    -3.9621    -0.8404 H       
  49 H49           -2.4850     0.6768     3.4157 H       
  50 H50           -3.5184    -0.7355     3.7410 H       
  51 H51           -1.8481    -0.9673     3.1713 H       
  52 H52           -4.8171     0.5934     0.5153 H       
  53 H53           -5.2522     0.1759     2.1900 H       
  54 H54           -4.2188     1.5882     1.8647 H       
  55 H55           -2.6879    -2.3636     1.2772 H       
  56 H56           -4.3582    -2.1318     1.8470 H       
  57 H57           -3.9231    -1.7143     0.1723 H       
@<TRIPOS>BOND
   1    1    2 am
   2    1    3 2
   3    1    4 1
   4    2    5 1
   5    2   33 1
   6    4   29 1
   7    5    6 ar
   8    5   10 ar
   9    6    7 ar
  10    6   34 1
  11    7    8 ar
  12    7   35 1
  13    8    9 ar
  14    8   11 1
  15    9   10 ar
  16    9   36 1
  17   10   37 1
  18   11   13 1
  19   12   13 1
  20   12   16 1
  21   13   14 2
  22   14   15 1
  23   15   16 2
  24   15   38 1
  25   16   17 1
  26   17   18 1
  27   17   19 2
  28   18   39 1
  29   18   40 1
  30   19   20 1
  31   20   21 1
  32   21   22 1
  33   21   24 2
  34   22   23 1
  35   22   25 1
  36   22   41 1
  37   23   42 1
  38   23   43 1
  39   23   44 1
  40   25   26 am
  41   25   45 1
  42   26   27 2
  43   26   28 1
  44   28   46 1
  45   28   47 1
  46   28   48 1
  47   29   30 1
  48   29   32 1
  49   29   31 1
  50   30   49 1
  51   30   50 1
  52   30   51 1
  53   31   52 1
  54   31   53 1
  55   31   54 1
  56   32   55 1
  57   32   56 1
  58   32   57 1

#	End of record

