#	Name: ASD03330243
#	Creating user name:	WinNT
#	Creation time:	15. 06. 2019 20:36

#	Modifying user name:	WinNT
#	Modification time:	15. 06. 2019 20:36

#	Program:	/corina/corina34_cracker 3.40 0067  02.08.2006

@<TRIPOS>MOLECULE
ASD03330243
  63   66    0    0    0
SMALL
NO_CHARGES


@<TRIPOS>ATOM
   1 C1            -0.0179     1.4666     0.0101 C.3     
   2 N2             0.0021    -0.0041     0.0020 N.am    
   3 C3             0.5791    -0.6826    -1.1742 C.3     
   4 C4             1.8395     0.0634    -1.5376 C.2     
   5 N5             2.1950     1.2602    -1.0064 N.pl3   
   6 C6             1.4218     1.9926    -0.0008 C.3     
   7 C7             2.8088    -0.2954    -2.4175 C.2     
   8 N8             3.7410     0.6841    -2.4213 N.2     
   9 C9             3.3779     1.6226    -1.5775 C.2     
  10 C10            4.1276     2.8665    -1.2948 C.ar    
  11 C11            5.1488     3.2788    -2.1513 C.ar    
  12 C12            2.8399    -1.5294    -3.2224 C.2     
  13 O13            1.9371    -2.3390    -3.1295 O.2     
  14 C14            3.8999    -2.9876    -4.8617 C.3     
  15 N15            3.8689    -1.7608    -4.0615 N.am    
  16 C16            5.8439     4.4400    -1.8824 C.ar    
  17 C17            5.5301     5.1948    -0.7663 C.ar    
  18 C18            4.5186     4.7912     0.0869 C.ar    
  19 C19            3.8125     3.6348    -0.1738 C.ar    
  20 C20            5.3264    -3.3210    -5.2150 C.ar    
  21 C21            3.0919    -2.7805    -6.1443 C.3     
  22 C22           -0.4915    -0.7107     1.0381 C.2     
  23 O23           -1.0131    -0.0708     2.1017 O.3     
  24 O24           -0.4658    -1.9252     1.0124 O.2     
  25 C25           -1.5262    -0.8957     3.1809 C.3     
  26 C26           -0.3982    -1.7667     3.7376 C.3     
  27 C27           -2.0738     0.0016     4.2926 C.3     
  28 C28           -2.6472    -1.7912     2.6496 C.3     
  29 C29            5.7560    -4.6347    -5.1891 C.ar    
  30 C30            6.2040    -2.3138    -5.5705 C.ar    
  31 C31            7.5125    -2.6196    -5.8945 C.ar    
  32 C32            7.9437    -3.9326    -5.8628 C.ar    
  33 C33            7.0645    -4.9405    -5.5132 C.ar    
  34 H34           -0.5441     1.8282    -0.8733 H       
  35 H35           -0.5271     1.8186     0.9072 H       
  36 H36            0.8171    -1.7172    -0.9273 H       
  37 H37           -0.1254    -0.6499    -2.0053 H       
  38 H38            1.4195     3.0547    -0.2457 H       
  39 H39            1.8705     1.8456     0.9816 H       
  40 H40            5.3949     2.6903    -3.0227 H       
  41 H41            3.4668    -3.8068    -4.2877 H       
  42 H42            4.5889    -1.1151    -4.1357 H       
  43 H43            6.6348     4.7601    -2.5445 H       
  44 H44            6.0774     6.1027    -0.5599 H       
  45 H45            4.2784     5.3848     0.9566 H       
  46 H46            3.0231     3.3208     0.4930 H       
  47 H47            2.0601    -2.5393    -5.8888 H       
  48 H48            3.5250    -1.9613    -6.7183 H       
  49 H49            3.1149    -3.6933    -6.7397 H       
  50 H50            0.4004    -1.1287     4.1162 H       
  51 H51           -0.7834    -2.3859     4.5477 H       
  52 H52           -0.0080    -2.4059     2.9456 H       
  53 H53           -2.8774     0.6221     3.8960 H       
  54 H54           -2.4590    -0.6176     5.1027 H       
  55 H55           -1.2752     0.6396     4.6711 H       
  56 H56           -2.2570    -2.4304     1.8576 H       
  57 H57           -3.0323    -2.4104     3.4597 H       
  58 H58           -3.4508    -1.1707     2.2529 H       
  59 H59            5.0693    -5.4221    -4.9154 H       
  60 H60            5.8671    -1.2880    -5.5953 H       
  61 H61            8.1979    -1.8328    -6.1729 H       
  62 H62            8.9659    -4.1716    -6.1163 H       
  63 H63            7.4014    -5.9664    -5.4884 H       
@<TRIPOS>BOND
   1    1    2 1
   2    1    6 1
   3    1   34 1
   4    1   35 1
   5    2    3 1
   6    2   22 am
   7    3    4 1
   8    3   36 1
   9    3   37 1
  10    4    5 1
  11    4    7 2
  12    5    6 1
  13    5    9 1
  14    6   38 1
  15    6   39 1
  16    7    8 1
  17    7   12 1
  18    8    9 2
  19    9   10 1
  20   10   11 ar
  21   10   19 ar
  22   11   16 ar
  23   11   40 1
  24   12   13 2
  25   12   15 am
  26   14   15 1
  27   14   20 1
  28   14   21 1
  29   14   41 1
  30   15   42 1
  31   16   17 ar
  32   16   43 1
  33   17   18 ar
  34   17   44 1
  35   18   19 ar
  36   18   45 1
  37   19   46 1
  38   20   29 ar
  39   20   30 ar
  40   21   47 1
  41   21   48 1
  42   21   49 1
  43   22   23 1
  44   22   24 2
  45   23   25 1
  46   25   26 1
  47   25   27 1
  48   25   28 1
  49   26   50 1
  50   26   51 1
  51   26   52 1
  52   27   53 1
  53   27   54 1
  54   27   55 1
  55   28   56 1
  56   28   57 1
  57   28   58 1
  58   29   33 ar
  59   29   59 1
  60   30   31 ar
  61   30   60 1
  62   31   32 ar
  63   31   61 1
  64   32   33 ar
  65   32   62 1
  66   33   63 1

#	End of record

