#	Name: ASD01150847
#	Creating user name:	WinNT
#	Creation time:	15. 06. 2019 19:05

#	Modifying user name:	WinNT
#	Modification time:	15. 06. 2019 19:05

#	Program:	/corina/corina34_cracker 3.40 0067  02.08.2006

@<TRIPOS>MOLECULE
ASD01150847
  46   48    0    0    0
SMALL
NO_CHARGES


@<TRIPOS>ATOM
   1 C1            -0.0169     1.3922     0.0097 C.ar    
   2 C2             0.0021    -0.0041     0.0020 C.ar    
   3 C3             1.2238    -0.6801    -0.0133 C.ar    
   4 C4             2.4035     0.0338    -0.0207 C.ar    
   5 C5             2.3782     1.4188    -0.0130 C.ar    
   6 C6             1.1694     2.0950     0.0021 C.ar    
   7 Cl7            3.8676     2.3106    -0.0219 Cl      
   8 C8            -1.2654    -0.7630     0.0105 C.2     
   9 N9            -1.2440    -2.1106     0.0031 N.am    
  10 O10           -2.3276    -0.1721     0.0243 O.2     
  11 C11           -2.4363    -2.8245     0.0111 C.2     
  12 N12           -3.6655    -2.3029     0.0256 N.2     
  13 C13           -4.5649    -3.2655     0.0296 C.2     
  14 N14           -3.9340    -4.4711     0.0174 N.pl3   
  15 C15           -2.5619    -4.2085    -0.0006 C.2     
  16 S16           -6.3108    -3.0290     0.0486 S.3     
  17 C17           -6.3829    -1.2204     0.0584 C.3     
  18 C18           -4.5430    -5.7324     0.0175 C.ar    
  19 C19           -5.3133    -6.1331    -1.0661 C.ar    
  20 C20           -5.9126    -7.3775    -1.0631 C.ar    
  21 C21           -5.7461    -8.2240     0.0176 C.ar    
  22 C22           -4.9799    -7.8277     1.0984 C.ar    
  23 C23           -4.3730    -6.5870     1.0987 C.ar    
  24 C24           -1.5178    -5.1545    -0.0181 C.2     
  25 O25           -1.8027    -6.4747    -0.0185 O.3     
  26 O26           -0.3585    -4.7817    -0.0329 O.2     
  27 C27           -0.6950    -7.3773    -0.0368 C.3     
  28 C28           -1.2109    -8.8178    -0.0343 C.3     
  29 H29           -0.9588     1.9205     0.0170 H       
  30 H30            1.2448    -1.7599    -0.0189 H       
  31 H31            3.3491    -0.4879    -0.0322 H       
  32 H32            1.1561     3.1749     0.0081 H       
  33 H33           -0.3964    -2.5822    -0.0079 H       
  34 H34           -5.8749    -0.8414     0.9451 H       
  35 H35           -5.8931    -0.8325    -0.8347 H       
  36 H36           -7.4242    -0.8984     0.0706 H       
  37 H37           -5.4441    -5.4723    -1.9103 H       
  38 H38           -6.5122    -7.6895    -1.9054 H       
  39 H39           -6.2157    -9.1965     0.0177 H       
  40 H40           -4.8523    -8.4908     1.9413 H       
  41 H41           -3.7744    -6.2782     1.9429 H       
  42 H42           -0.1011    -7.2056    -0.9345 H       
  43 H43           -0.0766    -7.2114     0.8453 H       
  44 H44           -0.3660    -9.5063    -0.0482 H       
  45 H45           -1.8048    -8.9895     0.8634 H       
  46 H46           -1.8294    -8.9837    -0.9164 H       
@<TRIPOS>BOND
   1    1    2 ar
   2    1    6 ar
   3    1   29 1
   4    2    3 ar
   5    2    8 1
   6    3    4 ar
   7    3   30 1
   8    4    5 ar
   9    4   31 1
  10    5    6 ar
  11    5    7 1
  12    6   32 1
  13    8    9 am
  14    8   10 2
  15    9   11 1
  16    9   33 1
  17   11   12 1
  18   11   15 2
  19   12   13 2
  20   13   14 1
  21   13   16 1
  22   14   15 1
  23   14   18 1
  24   15   24 1
  25   16   17 1
  26   17   34 1
  27   17   35 1
  28   17   36 1
  29   18   19 ar
  30   18   23 ar
  31   19   20 ar
  32   19   37 1
  33   20   21 ar
  34   20   38 1
  35   21   22 ar
  36   21   39 1
  37   22   23 ar
  38   22   40 1
  39   23   41 1
  40   24   25 1
  41   24   26 2
  42   25   27 1
  43   27   28 1
  44   27   42 1
  45   27   43 1
  46   28   44 1
  47   28   45 1
  48   28   46 1

#	End of record

