#	Name: ASD01901552
#	Creating user name:	WinNT
#	Creation time:	15. 06. 2019 19:53

#	Modifying user name:	WinNT
#	Modification time:	15. 06. 2019 19:53

#	Program:	/corina/corina34_cracker 3.40 0067  02.08.2006

@<TRIPOS>MOLECULE
ASD01901552
  31   34    0    0    0
SMALL
NO_CHARGES


@<TRIPOS>ATOM
   1 C1             1.1730     1.7689     0.3248 C.3     
   2 C2             0.9976     0.2778     0.1943 C.2     
   3 N3             1.0793    -0.4118    -0.9016 N.2     
   4 O4             0.8566    -1.7795    -0.6226 O.3     
   5 C5             0.6292    -1.9343     0.6990 C.ar    
   6 C6             0.3592    -3.0419     1.4970 C.ar    
   7 F7             0.2853    -4.2719     0.9429 F       
   8 C8             0.1677    -2.8842     2.8534 C.ar    
   9 C9             0.2416    -1.6204     3.4361 C.ar    
  10 N10            0.0455    -1.4753     4.8139 N.pl3   
  11 C11           -0.4804    -0.2854     5.3232 C.2     
  12 N12           -0.9252     0.7247     4.6235 N.2     
  13 N13           -1.3736     1.7379     5.4762 N.pl3   
  14 H14           -1.7479     2.5862     5.1909 H       
  15 C15           -1.2024     1.3460     6.7757 C.ar    
  16 N16           -1.4578     1.9208     7.9450 N.ar    
  17 C17           -1.1914     1.3137     9.0812 C.ar    
  18 C18           -0.6315     0.0449     9.1131 C.ar    
  19 C19           -0.3453    -0.5996     7.9371 C.ar    
  20 C20           -0.6395     0.0547     6.7374 C.ar    
  21 C21            0.5085    -0.5093     2.6574 C.ar    
  22 C22            0.7098    -0.6604     1.2832 C.ar    
  23 H23            2.2229     1.9965     0.5090 H       
  24 H24            0.8522     2.2545    -0.5968 H       
  25 H25            0.5707     2.1341     1.1567 H       
  26 H26           -0.0416    -3.7466     3.4689 H       
  27 H27            0.2747    -2.2010     5.4154 H       
  28 H28           -1.4137     1.8153    10.0115 H       
  29 H29           -0.4217    -0.4324    10.0589 H       
  30 H30            0.0908    -1.5877     7.9378 H       
  31 H31            0.5656     0.4697     3.1099 H       
@<TRIPOS>BOND
   1    1    2 1
   2    1   23 1
   3    1   24 1
   4    1   25 1
   5    2   22 1
   6    2    3 2
   7    3    4 1
   8    4    5 1
   9    5   22 ar
  10    5    6 ar
  11    6    7 1
  12    6    8 ar
  13    8    9 ar
  14    8   26 1
  15    9   10 1
  16    9   21 ar
  17   10   11 1
  18   10   27 1
  19   11   20 1
  20   11   12 2
  21   12   13 1
  22   13   14 1
  23   13   15 1
  24   15   20 ar
  25   15   16 ar
  26   16   17 ar
  27   17   18 ar
  28   17   28 1
  29   18   19 ar
  30   18   29 1
  31   19   20 ar
  32   19   30 1
  33   21   22 ar
  34   21   31 1

#	End of record

