#	Name: ASD05233004
#	Creating user name:	WinNT
#	Creation time:	15. 06. 2019 20:57

#	Modifying user name:	WinNT
#	Modification time:	15. 06. 2019 20:57

#	Program:	/corina/corina34_cracker 3.40 0067  02.08.2006

@<TRIPOS>MOLECULE
ASD05233004
  24   25    0    0    0
SMALL
NO_CHARGES


@<TRIPOS>ATOM
   1 C1            -0.0163     1.3476     0.0095 C.2     
   2 C2             0.0021    -0.0041     0.0020 C.2     
   3 C3            -1.3311    -0.4495     0.0123 C.2     
   4 C4            -2.1289     0.6555     0.0259 C.2     
   5 N5            -1.3164     1.7623     0.0300 N.pl3   
   6 C6            -3.6068     0.6613     0.0400 C.ar    
   7 C7            -4.3016     0.1467     1.1408 C.ar    
   8 C8            -5.6871     0.1562     1.1453 C.ar    
   9 C9            -6.3804     0.6725     0.0654 C.ar    
  10 C10           -5.6966     1.1825    -1.0254 C.ar    
  11 C11           -4.3162     1.1849    -1.0415 C.ar    
  12 O12           -3.6196    -0.3609     2.2012 O.3     
  13 Br13          -6.6315    -0.5382     2.6292 Br      
  14 Br14          -6.6571     1.8847    -2.4951 Br      
  15 Br15          -1.9106    -2.2495     0.0082 Br      
  16 Br16           1.5439    -1.0987    -0.0191 Br      
  17 Br17           1.5030     2.4736     0.0010 Br      
  18 C18           -3.2840     0.5478     3.2518 C.3     
  19 H19           -1.6163     2.6847     0.0392 H       
  20 H20           -7.4604     0.6776     0.0729 H       
  21 H21           -3.7861     1.5838    -1.8937 H       
  22 H22           -2.6568     1.3461     2.8551 H       
  23 H23           -4.1964     0.9752     3.6677 H       
  24 H24           -2.7429     0.0151     4.0338 H       
@<TRIPOS>BOND
   1    1    2 2
   2    1   17 1
   3    1    5 1
   4    2    3 1
   5    2   16 1
   6    3    4 2
   7    3   15 1
   8    4    5 1
   9    4    6 1
  10    5   19 1
  11    6    7 ar
  12    6   11 ar
  13    7    8 ar
  14    7   12 1
  15    8    9 ar
  16    8   13 1
  17    9   10 ar
  18    9   20 1
  19   10   11 ar
  20   10   14 1
  21   11   21 1
  22   12   18 1
  23   18   22 1
  24   18   23 1
  25   18   24 1

#	End of record

