#	Name: ASD01814574
#	Creating user name:	WinNT
#	Creation time:	15. 06. 2019 19:32

#	Modifying user name:	WinNT
#	Modification time:	15. 06. 2019 19:32

#	Program:	/corina/corina34_cracker 3.40 0067  02.08.2006

@<TRIPOS>MOLECULE
ASD01814574
  43   46    0    0    0
SMALL
NO_CHARGES


@<TRIPOS>ATOM
   1 C1            -0.4996     0.7165     0.6721 C.2     
   2 C2            -0.2394    -0.6604     0.6575 C.2     
   3 C3             1.0311    -1.1014     0.4282 C.2     
   4 C4             2.0574    -0.1672     0.2105 C.2     
   5 N5             1.7751     1.1717     0.2306 N.am    
   6 C6             0.5015     1.6006     0.4604 C.2     
   7 C7             3.3639    -0.6177    -0.0254 C.2     
   8 C8             4.3684     0.2814    -0.2376 C.2     
   9 C9             4.0743     1.6574    -0.2167 C.2     
  10 C10            2.7506     2.0791     0.0235 C.2     
  11 O11            2.4867     3.2695     0.0429 O.2     
  12 C12            5.1342     2.6428    -0.4412 C.2     
  13 O13            4.8458     3.9604    -0.4199 O.3     
  14 O14            6.2747     2.2731    -0.6468 O.2     
  15 C15            3.6593    -2.0954    -0.0439 C.3     
  16 N16            3.6580    -2.5776    -1.4315 N.3     
  17 C17            2.4040    -2.2345    -2.1051 C.3     
  18 C18            2.4485    -2.7859    -3.5357 C.3     
  19 C19            2.4069    -4.3136    -3.4531 C.3     
  20 C20            3.3978    -4.7930    -2.4224 C.ar    
  21 C21            3.9555    -3.9384    -1.4878 C.ar    
  22 C22            3.7477    -6.1342    -2.4267 C.ar    
  23 C23            4.6466    -6.6265    -1.5017 C.ar    
  24 C24            5.2035    -5.7777    -0.5624 C.ar    
  25 C25            4.8624    -4.4425    -0.5536 C.ar    
  26 H26           -1.5038     1.0727     0.8486 H       
  27 H27           -1.0384    -1.3671     0.8269 H       
  28 H28            1.2461    -2.1597     0.4145 H       
  29 H29            0.2896     2.6595     0.4742 H       
  30 H30            5.3771    -0.0591    -0.4191 H       
  31 H31            5.5783     4.5727    -0.5733 H       
  32 H32            4.6371    -2.2761     0.4026 H       
  33 H33            2.8961    -2.6257     0.5257 H       
  34 H34            1.5665    -2.6793    -1.5676 H       
  35 H35            2.2890    -1.1510    -2.1342 H       
  36 H36            1.5877    -2.4234    -4.0975 H       
  37 H37            3.3693    -2.4681    -4.0248 H       
  38 H38            1.4045    -4.6343    -3.1695 H       
  39 H39            2.6611    -4.7365    -4.4250 H       
  40 H40            3.3138    -6.7990    -3.1589 H       
  41 H41            4.9142    -7.6728    -1.5114 H       
  42 H42            5.9055    -6.1609     0.1634 H       
  43 H43            5.2989    -3.7820     0.1810 H       
@<TRIPOS>BOND
   1    1    2 1
   2    1    6 2
   3    1   26 1
   4    2    3 2
   5    2   27 1
   6    3    4 1
   7    3   28 1
   8    4    5 1
   9    4    7 2
  10    5    6 1
  11    5   10 am
  12    6   29 1
  13    7    8 1
  14    7   15 1
  15    8    9 2
  16    8   30 1
  17    9   10 1
  18    9   12 1
  19   10   11 2
  20   12   13 1
  21   12   14 2
  22   13   31 1
  23   15   16 1
  24   15   32 1
  25   15   33 1
  26   16   17 1
  27   16   21 1
  28   17   18 1
  29   17   34 1
  30   17   35 1
  31   18   19 1
  32   18   36 1
  33   18   37 1
  34   19   20 1
  35   19   38 1
  36   19   39 1
  37   20   21 ar
  38   20   22 ar
  39   21   25 ar
  40   22   23 ar
  41   22   40 1
  42   23   24 ar
  43   23   41 1
  44   24   25 ar
  45   24   42 1
  46   25   43 1

#	End of record

