#	Name: ASD03090764
#	Creating user name:	WinNT
#	Creation time:	15. 06. 2019 20:29

#	Modifying user name:	WinNT
#	Modification time:	15. 06. 2019 20:29

#	Program:	/corina/corina34_cracker 3.40 0067  02.08.2006

@<TRIPOS>MOLECULE
ASD03090764
  39   41    0    0    0
SMALL
NO_CHARGES


@<TRIPOS>ATOM
   1 O1             0.0021    -0.0041     0.0020 O.2     
   2 C2            -0.0144     1.2086     0.0087 C.2     
   3 C3            -1.3294     1.9442     0.0315 C.3     
   4 C4            -2.2057     1.8638    -1.2202 C.3     
   5 C5            -2.6084     1.1046     0.0457 C.3     
   6 C6            -3.7799     1.6345     0.8318 C.ar    
   7 C7            -4.3005     0.8965     1.8783 C.ar    
   8 C8            -5.3751     1.3825     2.5994 C.ar    
   9 C9            -5.9289     2.6067     2.2741 C.ar    
  10 C10           -5.4077     3.3450     1.2281 C.ar    
  11 C11           -4.3303     2.8610     0.5098 C.ar    
  12 N12            1.1435     1.8983     0.0013 N.am    
  13 C13            2.4220     1.1832    -0.0147 C.3     
  14 C14            3.4948     2.0585     0.5802 C.ar    
  15 C15            4.4525     1.5087     1.4118 C.ar    
  16 C16            5.4370     2.3104     1.9576 C.ar    
  17 C17            5.4639     3.6648     1.6713 C.ar    
  18 C18            4.5041     4.2144     0.8383 C.ar    
  19 C19            3.5237     3.4098     0.2895 C.ar    
  20 F20            6.4256     4.4495     2.2047 F       
  21 C21            2.7920     0.8322    -1.4572 C.3     
  22 H22           -1.3351     2.8800     0.5904 H       
  23 H23           -2.7881     2.7464    -1.4844 H       
  24 H24           -1.8310     1.2787    -2.0601 H       
  25 H25           -2.4986     0.0202     0.0386 H       
  26 H26           -3.8679    -0.0598     2.1325 H       
  27 H27           -5.7823     0.8057     3.4166 H       
  28 H28           -6.7689     2.9860     2.8370 H       
  29 H29           -5.8405     4.3012     0.9737 H       
  30 H30           -3.9231     3.4378    -0.3074 H       
  31 H31            1.1304     2.8682     0.0067 H       
  32 H32            2.3338     0.2679     0.5707 H       
  33 H33            4.4312     0.4523     1.6353 H       
  34 H34            6.1850     1.8807     2.6075 H       
  35 H35            4.5241     5.2707     0.6143 H       
  36 H36            2.7749     3.8382    -0.3603 H       
  37 H37            3.7432     0.3001    -1.4692 H       
  38 H38            2.0161     0.1990    -1.8876 H       
  39 H39            2.8802     1.7474    -2.0426 H       
@<TRIPOS>BOND
   1    1    2 2
   2    2   12 am
   3    2    3 1
   4    3    4 1
   5    3    5 1
   6    3   22 1
   7    4    5 1
   8    4   23 1
   9    4   24 1
  10    5    6 1
  11    5   25 1
  12    6    7 ar
  13    6   11 ar
  14    7    8 ar
  15    7   26 1
  16    8    9 ar
  17    8   27 1
  18    9   10 ar
  19    9   28 1
  20   10   11 ar
  21   10   29 1
  22   11   30 1
  23   12   13 1
  24   12   31 1
  25   13   14 1
  26   13   21 1
  27   13   32 1
  28   14   15 ar
  29   14   19 ar
  30   15   16 ar
  31   15   33 1
  32   16   17 ar
  33   16   34 1
  34   17   18 ar
  35   17   20 1
  36   18   19 ar
  37   18   35 1
  38   19   36 1
  39   21   37 1
  40   21   38 1
  41   21   39 1

#	End of record

