#	Name: ASD01310008
#	Creating user name:	WinNT
#	Creation time:	15. 06. 2019 19:15

#	Modifying user name:	WinNT
#	Modification time:	15. 06. 2019 19:15

#	Program:	/corina/corina34_cracker 3.40 0067  02.08.2006

@<TRIPOS>MOLECULE
ASD01310008
  62   66    0    0    0
SMALL
NO_CHARGES


@<TRIPOS>ATOM
   1 N1            -0.0181     1.4829     0.0102 N.3     
   2 C2             0.0021    -0.0041     0.0020 C.3     
   3 C3            -1.4265    -0.4807     0.3097 C.3     
   4 C4            -2.3543    -0.0292    -0.8219 C.3     
   5 C5            -2.2208     1.4823    -1.0278 C.3     
   6 C6            -0.7384     1.8259    -1.2449 C.3     
   7 C7            -0.1720     0.8376    -2.2902 C.3     
   8 C8             0.3173    -0.3717    -1.4663 C.3     
   9 O9            -3.7278    -0.3503    -0.4775 O.3     
  10 C10           -4.5677    -0.6157    -1.4964 C.2     
  11 O11           -4.1639    -0.5800    -2.6412 O.2     
  12 C12          -10.0484    -1.9152    -0.4294 C.2     
  13 O13          -10.4961    -1.9553     0.8403 O.3     
  14 O14          -10.8058    -2.1541    -1.3481 O.2     
  15 C15          -12.4120    -1.6034     2.3026 C.3     
  16 C16          -11.8952    -2.2910     1.0356 C.3     
  17 C17          -12.0400    -3.8091     1.1757 C.3     
  18 C18          -13.4990    -4.1393     1.5290 C.3     
  19 N19          -13.7758    -3.5414     2.8623 N.3     
  20 C20          -13.8458    -2.0831     2.5796 C.3     
  21 C21          -14.6394    -1.9904     1.2560 C.3     
  22 C22          -14.4102    -3.3491     0.5618 C.3     
  23 C23            1.3460     2.0280     0.0001 C.3     
  24 C24          -15.0484    -4.0340     3.4061 C.3     
  25 C25           -5.9821    -0.9508    -1.2211 C.ar    
  26 C26           -6.8526    -1.2259    -2.2772 C.ar    
  27 C27           -8.1700    -1.5385    -2.0207 C.ar    
  28 C28           -8.6340    -1.5801    -0.7047 C.ar    
  29 C29           -7.7635    -1.3050     0.3514 C.ar    
  30 C30           -6.4448    -0.9975     0.0951 C.ar    
  31 H31            0.7305    -0.4106     0.7036 H       
  32 H32           -1.4409    -1.5683     0.3816 H       
  33 H33           -1.7614    -0.0463     1.2516 H       
  34 H34           -2.0818    -0.5460    -1.7421 H       
  35 H35           -2.7973     1.7840    -1.9023 H       
  36 H36           -2.5914     2.0051    -0.1460 H       
  37 H37           -0.5961     2.8682    -1.5304 H       
  38 H38           -0.9537     0.5315    -2.9854 H       
  39 H39            0.6599     1.2909    -2.8291 H       
  40 H40            1.3898    -0.5128    -1.6001 H       
  41 H41           -0.2238    -1.2723    -1.7564 H       
  42 H42          -11.7712    -1.8620     3.1456 H       
  43 H43          -12.4100    -0.5230     2.1582 H       
  44 H44          -12.4726    -1.9495     0.1765 H       
  45 H45          -11.7747    -4.2896     0.2339 H       
  46 H46          -11.3825    -4.1670     1.9680 H       
  47 H47          -13.6964    -5.2108     1.4984 H       
  48 H48          -14.3149    -1.5276     3.3916 H       
  49 H49          -15.7001    -1.8424     1.4592 H       
  50 H50          -14.2539    -1.1791     0.6385 H       
  51 H51          -13.9119    -3.2059    -0.3970 H       
  52 H52          -15.3582    -3.8691     0.4236 H       
  53 H53            1.8655     1.6904    -0.8967 H       
  54 H54            1.3022     3.1171     0.0064 H       
  55 H55            1.8825     1.6809     0.8831 H       
  56 H56          -15.0032    -5.1179     3.5117 H       
  57 H57          -15.2263    -3.5810     4.3815 H       
  58 H58          -15.8600    -3.7684     2.7288 H       
  59 H59           -6.4936    -1.1934    -3.2953 H       
  60 H60           -8.8435    -1.7510    -2.8377 H       
  61 H61           -8.1225    -1.3371     1.3695 H       
  62 H62           -5.7713    -0.7851     0.9122 H       
@<TRIPOS>BOND
   1    1    2 1
   2    1   23 1
   3    1    6 1
   4    2    3 1
   5    2    8 1
   6    2   31 1
   7    3    4 1
   8    3   32 1
   9    3   33 1
  10    4    5 1
  11    4    9 1
  12    4   34 1
  13    5    6 1
  14    5   35 1
  15    5   36 1
  16    6    7 1
  17    6   37 1
  18    7    8 1
  19    7   38 1
  20    7   39 1
  21    8   40 1
  22    8   41 1
  23    9   10 1
  24   10   11 2
  25   10   25 1
  26   12   13 1
  27   12   14 2
  28   12   28 1
  29   13   16 1
  30   15   16 1
  31   15   20 1
  32   15   42 1
  33   15   43 1
  34   16   17 1
  35   16   44 1
  36   17   18 1
  37   17   45 1
  38   17   46 1
  39   18   22 1
  40   18   19 1
  41   18   47 1
  42   19   20 1
  43   19   24 1
  44   20   21 1
  45   20   48 1
  46   21   22 1
  47   21   49 1
  48   21   50 1
  49   22   51 1
  50   22   52 1
  51   23   53 1
  52   23   54 1
  53   23   55 1
  54   24   56 1
  55   24   57 1
  56   24   58 1
  57   25   26 ar
  58   25   30 ar
  59   26   27 ar
  60   26   59 1
  61   27   28 ar
  62   27   60 1
  63   28   29 ar
  64   29   30 ar
  65   29   61 1
  66   30   62 1

#	End of record

