#	Name: ASD01918164
#	Creating user name:	WinNT
#	Creation time:	15. 06. 2019 20:10

#	Modifying user name:	WinNT
#	Modification time:	15. 06. 2019 20:10

#	Program:	/corina/corina34_cracker 3.40 0067  02.08.2006

@<TRIPOS>MOLECULE
ASD01918164
  44   47    0    0    0
SMALL
NO_CHARGES


@<TRIPOS>ATOM
   1 C1             0.7967     0.7112     0.0005 C.ar    
   2 C2             0.9657    -0.6642     0.0262 C.ar    
   3 C3             2.2390    -1.2104     0.0605 C.ar    
   4 C4             3.3452    -0.3870     0.0691 C.ar    
   5 C5             3.1807     0.9989     0.0428 C.ar    
   6 C6             1.8959     1.5438     0.0083 C.ar    
   7 F7            -0.1147    -1.4753     0.0183 F       
   8 C8             4.3626     1.8864     0.0524 C.2     
   9 C9             4.3636     3.2548     0.0298 C.2     
  10 C10            5.7322     3.5924     0.0523 C.2     
  11 N11            6.3921     2.4695     0.0844 N.2     
  12 O12            5.6539     1.5121     0.0910 O.3     
  13 C13            6.3175     4.9811     0.0409 C.3     
  14 C14            6.4297     5.4763    -1.4029 C.3     
  15 C15            7.0544     6.8733    -1.4177 C.3     
  16 C16            6.1525     7.8398    -0.6437 C.3     
  17 N17            5.9214     7.2964     0.7017 N.am    
  18 C18            5.4072     5.9262     0.8314 C.3     
  19 C19            6.1762     8.0407     1.7960 C.2     
  20 O20            6.7009     9.1312     1.6807 O.2     
  21 C21            5.8180     7.5313     3.1356 C.ar    
  22 C22            6.6827     7.7089     4.2159 C.ar    
  23 N23            6.3649     7.2549     5.4105 N.ar    
  24 C24            5.2279     6.6200     5.6353 C.ar    
  25 C25            4.3152     6.4044     4.6127 C.ar    
  26 C26            4.6014     6.8669     3.3427 C.ar    
  27 F27            4.9501     6.1737     6.8798 F       
  28 H28           -0.1977     1.1316    -0.0303 H       
  29 H29            2.3652    -2.2828     0.0808 H       
  30 H30            4.3370    -0.8137     0.0965 H       
  31 H31            1.7632     2.6154    -0.0125 H       
  32 H32            3.5139     3.9208     0.0013 H       
  33 H33            7.3073     4.9624     0.4970 H       
  34 H34            7.0572     4.7918    -1.9738 H       
  35 H35            5.4369     5.5177    -1.8507 H       
  36 H36            8.0372     6.8374    -0.9476 H       
  37 H37            7.1555     7.2157    -2.4476 H       
  38 H38            6.6397     8.8118    -0.5665 H       
  39 H39            5.2002     7.9464    -1.1633 H       
  40 H40            4.3942     5.8767     0.4321 H       
  41 H41            5.4028     5.6355     1.8819 H       
  42 H42            7.6214     8.2230     4.0711 H       
  43 H43            3.3893     5.8839     4.8082 H       
  44 H44            3.9089     6.7132     2.5284 H       
@<TRIPOS>BOND
   1    1    2 ar
   2    1    6 ar
   3    1   28 1
   4    2    3 ar
   5    2    7 1
   6    3    4 ar
   7    3   29 1
   8    4    5 ar
   9    4   30 1
  10    5    6 ar
  11    5    8 1
  12    6   31 1
  13    8    9 2
  14    8   12 1
  15    9   10 1
  16    9   32 1
  17   10   11 2
  18   10   13 1
  19   11   12 1
  20   13   14 1
  21   13   18 1
  22   13   33 1
  23   14   15 1
  24   14   34 1
  25   14   35 1
  26   15   16 1
  27   15   36 1
  28   15   37 1
  29   16   17 1
  30   16   38 1
  31   16   39 1
  32   17   18 1
  33   17   19 am
  34   18   40 1
  35   18   41 1
  36   19   20 2
  37   19   21 1
  38   21   22 ar
  39   21   26 ar
  40   22   23 ar
  41   22   42 1
  42   23   24 ar
  43   24   25 ar
  44   24   27 1
  45   25   26 ar
  46   25   43 1
  47   26   44 1

#	End of record

