#	Name: ASD01209262
#	Creating user name:	WinNT
#	Creation time:	15. 06. 2019 19:11

#	Modifying user name:	WinNT
#	Modification time:	15. 06. 2019 19:11

#	Program:	/corina/corina34_cracker 3.40 0067  02.08.2006

@<TRIPOS>MOLECULE
ASD01209262
  83   86    0    0    0
SMALL
NO_CHARGES


@<TRIPOS>ATOM
   1 O1            -3.0103     5.4001     2.3696 O.3     
   2 O2            -0.5939     5.1838     3.3827 O.3     
   3 C3             8.4414     8.7915     2.6984 C.ar    
   4 C4             8.3217     9.0259     4.0603 C.ar    
   5 C5             7.0769     8.9692     4.6714 C.ar    
   6 C6             5.9484     8.6782     3.9229 C.ar    
   7 C7             6.0645     8.4417     2.5525 C.ar    
   8 C8             7.3172     8.5049     1.9414 C.ar    
   9 O9             6.9651     9.1997     6.0060 O.3     
  10 C10            4.8630     8.1307     1.7495 C.2     
  11 N11            3.6532     8.0753     2.3409 N.am    
  12 O12            4.9661     7.9251     0.5559 O.2     
  13 C13            2.5242     7.7831     1.5864 C.2     
  14 P14           -1.4378     5.5643     2.0655 P.3     
  15 O15           -1.0532     4.6636     0.9559 O.2     
  16 C16           -1.0866     7.2905     1.5964 C.3     
  17 N17            1.3177     7.7054     2.0548 N.2     
  18 S18            2.5221     7.4807    -0.0963 S.3     
  19 C19            0.7765     7.2451    -0.0625 C.2     
  20 C20            0.3600     7.4173     1.1935 C.2     
  21 O21            9.6627     8.8486     2.1049 O.3     
  22 C22            9.7279     8.5021     0.7201 C.3     
  23 C23           11.1438     8.0347     0.3774 C.3     
  24 O24           12.0565     9.1224     0.5382 O.3     
  25 C25           13.4144     8.7905     0.2416 C.3     
  26 C26            9.3751     9.7251    -0.1288 C.3     
  27 C27            6.8095     8.1285     6.8275 C.ar    
  28 C28            6.6530     8.3170     8.1932 C.ar    
  29 C29            6.4945     7.2264     9.0261 C.ar    
  30 C30            6.4918     5.9478     8.4999 C.ar    
  31 C31            6.6476     5.7571     7.1393 C.ar    
  32 C32            6.8011     6.8446     6.3014 C.ar    
  33 S33            6.2901     4.5588     9.5651 S.o2    
  34 O34            6.9287     3.4929     8.8758 O.2     
  35 O35            6.7711     5.0097    10.8239 O.2     
  36 C36            4.4968     4.2927     9.6272 C.3     
  37 C37           -0.5720     3.8681     3.9400 C.3     
  38 C38            0.3230     3.8545     5.1808 C.3     
  39 C39           -3.6190     4.1408     2.6624 C.3     
  40 C40           -5.1171     4.3414     2.8998 C.3     
  41 C41           14.2840    10.0046     0.4437 C.ar    
  42 C42           14.8556    10.2475     1.6786 C.ar    
  43 C43           14.5146    10.8723    -0.6074 C.ar    
  44 C44           15.3122    11.9860    -0.4220 C.ar    
  45 C45           15.8789    12.2322     0.8146 C.ar    
  46 C46           15.6532    11.3612     1.8640 C.ar    
  47 H47            9.1996     9.2527     4.6469 H       
  48 H48            4.9802     8.6336     4.3992 H       
  49 H49            7.4114     8.3229     0.8810 H       
  50 H50            3.5709     8.2394     3.2934 H       
  51 H51           -1.7234     7.5763     0.7592 H       
  52 H52           -1.2862     7.9453     2.4447 H       
  53 H53            0.1522     7.0064    -0.9108 H       
  54 H54            9.0201     7.6995     0.5127 H       
  55 H55           11.4286     7.2199     1.0431 H       
  56 H56           11.1716     7.6867    -0.6552 H       
  57 H57           13.7463     7.9914     0.9045 H       
  58 H58           13.4893     8.4582    -0.7938 H       
  59 H59            9.4248     9.4608    -1.1851 H       
  60 H60            8.3663    10.0581     0.1153 H       
  61 H61           10.0828    10.5277     0.0785 H       
  62 H62            6.6554     9.3155     8.6048 H       
  63 H63            6.3730     7.3726    10.0892 H       
  64 H64            6.6455     4.7573     6.7308 H       
  65 H65            6.9229     6.6951     5.2387 H       
  66 H66            4.1241     4.0926     8.6227 H       
  67 H67            4.2778     3.4417    10.2722 H       
  68 H68            4.0107     5.1840    10.0242 H       
  69 H69           -1.5841     3.5747     4.2188 H       
  70 H70           -0.1809     3.1675     3.2022 H       
  71 H71            1.3351     4.1479     4.9019 H       
  72 H72           -0.0681     4.5551     5.9186 H       
  73 H73            0.3397     2.8510     5.6058 H       
  74 H74           -3.4720     3.4620     1.8223 H       
  75 H75           -3.1631     3.7161     3.5568 H       
  76 H76           -5.5730     4.7661     2.0055 H       
  77 H77           -5.5814     3.3809     3.1232 H       
  78 H78           -5.2641     5.0202     3.7399 H       
  79 H79           14.6788     9.5673     2.4987 H       
  80 H80           14.0718    10.6800    -1.5735 H       
  81 H81           15.4930    12.6635    -1.2434 H       
  82 H82           16.5024    13.1021     0.9593 H       
  83 H83           16.0960    11.5535     2.8302 H       
@<TRIPOS>BOND
   1    1   39 1
   2    1   14 1
   3    2   37 1
   4    2   14 1
   5    3    4 ar
   6    3   21 1
   7    3    8 ar
   8    4    5 ar
   9    4   47 1
  10    5    6 ar
  11    5    9 1
  12    6    7 ar
  13    6   48 1
  14    7    8 ar
  15    7   10 1
  16    8   49 1
  17    9   27 1
  18   10   11 am
  19   10   12 2
  20   11   13 1
  21   11   50 1
  22   13   17 2
  23   13   18 1
  24   14   15 2
  25   14   16 1
  26   16   20 1
  27   16   51 1
  28   16   52 1
  29   17   20 1
  30   18   19 1
  31   19   20 2
  32   19   53 1
  33   21   22 1
  34   22   23 1
  35   22   26 1
  36   22   54 1
  37   23   24 1
  38   23   55 1
  39   23   56 1
  40   24   25 1
  41   25   41 1
  42   25   57 1
  43   25   58 1
  44   26   59 1
  45   26   60 1
  46   26   61 1
  47   27   28 ar
  48   27   32 ar
  49   28   29 ar
  50   28   62 1
  51   29   30 ar
  52   29   63 1
  53   30   31 ar
  54   30   33 1
  55   31   32 ar
  56   31   64 1
  57   32   65 1
  58   33   34 2
  59   33   35 2
  60   33   36 1
  61   36   66 1
  62   36   67 1
  63   36   68 1
  64   37   38 1
  65   37   69 1
  66   37   70 1
  67   38   71 1
  68   38   72 1
  69   38   73 1
  70   39   40 1
  71   39   74 1
  72   39   75 1
  73   40   76 1
  74   40   77 1
  75   40   78 1
  76   41   42 ar
  77   41   43 ar
  78   42   46 ar
  79   42   79 1
  80   43   44 ar
  81   43   80 1
  82   44   45 ar
  83   44   81 1
  84   45   46 ar
  85   45   82 1
  86   46   83 1

#	End of record

