#	Name: ASD01910619
#	Creating user name:	WinNT
#	Creation time:	15. 06. 2019 19:56

#	Modifying user name:	WinNT
#	Modification time:	15. 06. 2019 19:56

#	Program:	/corina/corina34_cracker 3.40 0067  02.08.2006

@<TRIPOS>MOLECULE
ASD01910619
  44   47    0    0    0
SMALL
NO_CHARGES


@<TRIPOS>ATOM
   1 C1            -0.6688     1.8334    -1.9798 C.ar    
   2 C2            -0.7388     0.4749    -1.7126 C.ar    
   3 C3             0.3314    -0.1758    -1.1183 C.ar    
   4 C4             1.4719     0.5258    -0.7902 C.ar    
   5 C5             1.5479     1.8942    -1.0575 C.ar    
   6 C6             0.4669     2.5446    -1.6558 C.ar    
   7 C7             2.7676     2.6512    -0.7080 C.2     
   8 N8             2.9784     3.9414    -0.9013 N.2     
   9 C9             4.2130     4.1784    -0.4317 C.2     
  10 N10            4.6873     3.0529     0.0148 N.2     
  11 O11            3.8749     2.1636    -0.1272 O.3     
  12 C12            4.9219     5.5082    -0.4238 C.3     
  13 C13            5.2597     5.8984     1.0169 C.3     
  14 C14            5.9503     7.2641     1.0288 C.3     
  15 C15            7.2561     7.1785     0.2323 C.3     
  16 N16            6.9574     6.6649    -1.1115 N.am    
  17 C17            6.2160     5.4027    -1.2368 C.3     
  18 C18            7.3561     7.3389    -2.2085 C.2     
  19 C19            8.0268     8.6477    -2.0681 C.ar    
  20 O20            7.1637     6.8699    -3.3134 O.2     
  21 C21            9.1102     8.7898    -1.1992 C.ar    
  22 C22            9.7334    10.0132    -1.0710 C.ar    
  23 C23            9.2864    11.1019    -1.8025 C.ar    
  24 C24            8.2090    10.9674    -2.6683 C.ar    
  25 C25            7.5827     9.7455    -2.8086 C.ar    
  26 F26            9.9006    12.2982    -1.6726 F       
  27 F27           -1.8541    -0.2174    -2.0321 F       
  28 F28            7.7772    12.0324    -3.3787 F       
  29 H29           -1.5038     2.3346    -2.4466 H       
  30 H30            0.2714    -1.2341    -0.9117 H       
  31 H31            2.3050     0.0180    -0.3269 H       
  32 H32            0.5206     3.6028    -1.8650 H       
  33 H33            4.2758     6.2675    -0.8644 H       
  34 H34            4.3426     5.9502     1.6037 H       
  35 H35            5.9253     5.1512     1.4490 H       
  36 H36            5.2950     8.0072     0.5743 H       
  37 H37            6.1696     7.5520     2.0570 H       
  38 H38            7.7019     8.1700     0.1538 H       
  39 H39            7.9478     6.5033     0.7361 H       
  40 H40            6.8229     4.5827    -0.8528 H       
  41 H41            5.9756     5.2226    -2.2846 H       
  42 H42            9.4596     7.9426    -0.6277 H       
  43 H43           10.5715    10.1231    -0.3988 H       
  44 H44            6.7450     9.6409    -3.4822 H       
@<TRIPOS>BOND
   1    1    2 ar
   2    1    6 ar
   3    1   29 1
   4    2    3 ar
   5    2   27 1
   6    3    4 ar
   7    3   30 1
   8    4    5 ar
   9    4   31 1
  10    5    6 ar
  11    5    7 1
  12    6   32 1
  13    7    8 2
  14    7   11 1
  15    8    9 1
  16    9   10 2
  17    9   12 1
  18   10   11 1
  19   12   13 1
  20   12   17 1
  21   12   33 1
  22   13   14 1
  23   13   34 1
  24   13   35 1
  25   14   15 1
  26   14   36 1
  27   14   37 1
  28   15   16 1
  29   15   38 1
  30   15   39 1
  31   16   17 1
  32   16   18 am
  33   17   40 1
  34   17   41 1
  35   18   19 1
  36   18   20 2
  37   19   21 ar
  38   19   25 ar
  39   21   22 ar
  40   21   42 1
  41   22   23 ar
  42   22   43 1
  43   23   24 ar
  44   23   26 1
  45   24   25 ar
  46   24   28 1
  47   25   44 1

#	End of record

