#	Name: ASD03430169
#	Creating user name:	WinNT
#	Creation time:	15. 06. 2019 20:40

#	Modifying user name:	WinNT
#	Modification time:	15. 06. 2019 20:40

#	Program:	/corina/corina34_cracker 3.40 0067  02.08.2006

@<TRIPOS>MOLECULE
ASD03430169
  57   62    0    0    0
SMALL
NO_CHARGES


@<TRIPOS>ATOM
   1 C1            -0.6188    -2.3142     4.7725 C.ar    
   2 C2            -0.5674    -3.2342     3.7487 C.ar    
   3 C3             0.6145    -3.8839     3.4607 C.ar    
   4 C4             1.7611    -3.6221     4.2064 C.ar    
   5 C5             1.7034    -2.6847     5.2308 C.ar    
   6 C6             0.5164    -2.0224     5.5196 C.ar    
   7 O7             2.8074    -4.3879     3.7851 O.3     
   8 C8             1.0001    -4.9011     2.4212 C.3     
   9 C9             2.5347    -4.8783     2.4587 C.3     
  10 C10           -0.3052    -6.6226     1.6126 C.ar    
  11 C11            0.4542    -6.2652     2.7240 C.ar    
  12 C12            0.4709    -4.5542     1.0595 C.2     
  13 N13           -0.2744    -5.6034     0.6582 N.am    
  14 O14            0.6743    -3.5305     0.4416 O.2     
  15 C15            0.5700    -7.1197     3.7971 C.ar    
  16 C16           -0.0699    -8.3465     3.7790 C.ar    
  17 C17           -0.8268    -8.7116     2.6811 C.ar    
  18 C18           -0.9464    -7.8589     1.6033 C.ar    
  19 C19           -0.9706    -5.6673    -0.6292 C.3     
  20 C20           -1.7479    -1.4699     5.3298 C.3     
  21 C21           -1.1635    -1.0088     6.6860 C.3     
  22 O22            0.2548    -1.0707     6.4585 O.3     
  23 C23           -2.3585    -5.0999    -0.4784 C.2     
  24 N24           -3.1874    -5.0555    -1.5402 N.am    
  25 O25           -2.7297    -4.6832     0.5984 O.2     
  26 C26           -4.5120    -4.6350    -1.3767 C.ar    
  27 C27           -5.5582    -5.4831    -1.7155 C.ar    
  28 C28           -6.8644    -5.0652    -1.5525 C.ar    
  29 C29           -7.1310    -3.8036    -1.0529 C.ar    
  30 C30           -6.0915    -2.9567    -0.7146 C.ar    
  31 C31           -4.7831    -3.3708    -0.8699 C.ar    
  32 C32           -5.2685    -6.8577    -2.2610 C.3     
  33 C33           -3.6508    -2.4473    -0.5010 C.3     
  34 H34           -1.4544    -3.4475     3.1707 H       
  35 H35            2.5899    -2.4694     5.8088 H       
  36 H36            2.9302    -4.1971     1.7053 H       
  37 H37            2.9401    -5.8814     2.3260 H       
  38 H38            1.1614    -6.8324     4.6539 H       
  39 H39            0.0219    -9.0173     4.6204 H       
  40 H40           -1.3265    -9.6690     2.6670 H       
  41 H41           -1.5392    -8.1512     0.7491 H       
  42 H42           -0.4194    -5.0873    -1.3695 H       
  43 H43           -1.0358    -6.7051    -0.9559 H       
  44 H44           -1.9519    -0.6165     4.6832 H       
  45 H45           -2.6465    -2.0692     5.4765 H       
  46 H46           -1.4740     0.0110     6.9136 H       
  47 H47           -1.4566    -1.6902     7.4846 H       
  48 H48           -2.8658    -5.3151    -2.4178 H       
  49 H49           -7.6785    -5.7242    -1.8158 H       
  50 H50           -8.1534    -3.4789    -0.9271 H       
  51 H51           -6.3031    -1.9720    -0.3247 H       
  52 H52           -5.2004    -7.5685    -1.4374 H       
  53 H53           -6.0711    -7.1579    -2.9346 H       
  54 H54           -4.3243    -6.8410    -2.8054 H       
  55 H55           -3.4691    -2.5059     0.5722 H       
  56 H56           -2.7503    -2.7436    -1.0388 H       
  57 H57           -3.9142    -1.4242    -0.7695 H       
@<TRIPOS>BOND
   1    1    2 ar
   2    1    6 ar
   3    1   20 1
   4    2    3 ar
   5    2   34 1
   6    3    4 ar
   7    3    8 1
   8    4    5 ar
   9    4    7 1
  10    5    6 ar
  11    5   35 1
  12    6   22 1
  13    7    9 1
  14    8    9 1
  15    8   11 1
  16    8   12 1
  17    9   36 1
  18    9   37 1
  19   10   11 ar
  20   10   13 1
  21   10   18 ar
  22   11   15 ar
  23   12   13 am
  24   12   14 2
  25   13   19 1
  26   15   16 ar
  27   15   38 1
  28   16   17 ar
  29   16   39 1
  30   17   18 ar
  31   17   40 1
  32   18   41 1
  33   19   23 1
  34   19   42 1
  35   19   43 1
  36   20   21 1
  37   20   44 1
  38   20   45 1
  39   21   22 1
  40   21   46 1
  41   21   47 1
  42   23   24 am
  43   23   25 2
  44   24   26 1
  45   24   48 1
  46   26   27 ar
  47   26   31 ar
  48   27   28 ar
  49   27   32 1
  50   28   29 ar
  51   28   49 1
  52   29   30 ar
  53   29   50 1
  54   30   31 ar
  55   30   51 1
  56   31   33 1
  57   32   52 1
  58   32   53 1
  59   32   54 1
  60   33   55 1
  61   33   56 1
  62   33   57 1

#	End of record

