#	Name: ASD00070003
#	Creating user name:	WinNT
#	Creation time:	15. 06. 2019 18:29

#	Modifying user name:	WinNT
#	Modification time:	15. 06. 2019 18:29

#	Program:	/corina/corina34_cracker 3.40 0067  02.08.2006

@<TRIPOS>MOLECULE
ASD00070003
  59   62    0    0    0
SMALL
NO_CHARGES


@<TRIPOS>ATOM
   1 N1            -0.0159     1.3185     0.0093 N.ar    
   2 C2             0.0021    -0.0041     0.0020 C.ar    
   3 C3             1.2210    -0.6637    -0.0132 C.ar    
   4 C4             2.3831     0.0917    -0.0202 C.ar    
   5 N5             2.2949     1.4115    -0.0123 N.ar    
   6 C6             1.1136     2.0112     0.0022 C.ar    
   7 N7             1.0580     3.3941     0.0097 N.3     
   8 C8            -0.3339     3.8652     0.0256 C.3     
   9 C9            -0.3516     5.3931     0.1138 C.3     
  10 N10            0.3787     5.9557    -1.0306 N.3     
  11 C11            1.7706     5.4846    -1.0465 C.3     
  12 C12            1.7883     3.9567    -1.1347 C.3     
  13 C13            0.3197     7.4235    -1.0227 C.3     
  14 C14            1.2867     7.9784    -2.0705 C.3     
  15 C15            1.2253     9.5072    -2.0622 C.3     
  16 C16            2.1922    10.0621    -3.1101 C.3     
  17 N17            2.1334    11.5259    -3.1021 N.am    
  18 C18            2.9649    12.1970    -2.2916 C.2     
  19 C19            2.9691    13.7030    -2.2485 C.3     
  20 C20            1.5784    14.2202    -2.6128 C.3     
  21 C21            1.1515    13.6392    -3.9600 C.3     
  22 C22            1.2542    12.1370    -3.9096 C.2     
  23 C23            0.5676    13.8310    -1.5253 C.3     
  24 C24           -0.0026    15.1519    -0.9656 C.3     
  25 C25            0.2153    16.1746    -2.1088 C.3     
  26 C26            1.5921    15.7573    -2.6850 C.3     
  27 O27            0.5225    11.4675    -4.6067 O.2     
  28 O28            3.7277    11.5799    -1.5796 O.2     
  29 H29           -0.9219    -0.5632     0.0082 H       
  30 H30            1.2644    -1.7428    -0.0190 H       
  31 H31            3.3490    -0.3914    -0.0317 H       
  32 H32           -0.8357     3.5479    -0.8885 H       
  33 H33           -0.8502     3.4451     0.8888 H       
  34 H34           -1.3826     5.7464     0.0965 H       
  35 H35            0.1261     5.7094     1.0411 H       
  36 H36            2.2869     5.9047    -1.9098 H       
  37 H37            2.2724     5.8020    -0.1324 H       
  38 H38            2.8193     3.6034    -1.1174 H       
  39 H39            1.3107     3.6404    -2.0620 H       
  40 H40           -0.6944     7.7476    -1.2563 H       
  41 H41            0.6012     7.7931    -0.0367 H       
  42 H42            2.3008     7.6543    -1.8369 H       
  43 H43            1.0052     7.6088    -3.0565 H       
  44 H44            0.2112     9.8313    -2.2959 H       
  45 H45            1.5068     9.8768    -1.0762 H       
  46 H46            3.2064     9.7379    -2.8764 H       
  47 H47            1.9108     9.6925    -4.0961 H       
  48 H48            3.2307    14.0378    -1.2447 H       
  49 H49            3.6985    14.0857    -2.9624 H       
  50 H50            0.1223    13.9289    -4.1718 H       
  51 H51            1.8063    14.0191    -4.7443 H       
  52 H52           -0.2336    13.2311    -1.9568 H       
  53 H53            1.0671    13.2739    -0.7327 H       
  54 H54           -1.0649    15.0460    -0.7458 H       
  55 H55            0.5442    15.4555    -0.0729 H       
  56 H56           -0.5643    16.0805    -2.8648 H       
  57 H57            0.2530    17.1906    -1.7159 H       
  58 H58            2.3998    16.1609    -2.0744 H       
  59 H59            1.6903    16.0901    -3.7183 H       
@<TRIPOS>BOND
   1    1    2 ar
   2    1    6 ar
   3    2    3 ar
   4    2   29 1
   5    3    4 ar
   6    3   30 1
   7    4    5 ar
   8    4   31 1
   9    5    6 ar
  10    6    7 1
  11    7    8 1
  12    7   12 1
  13    8    9 1
  14    8   32 1
  15    8   33 1
  16    9   10 1
  17    9   34 1
  18    9   35 1
  19   10   11 1
  20   10   13 1
  21   11   12 1
  22   11   36 1
  23   11   37 1
  24   12   38 1
  25   12   39 1
  26   13   14 1
  27   13   40 1
  28   13   41 1
  29   14   15 1
  30   14   42 1
  31   14   43 1
  32   15   16 1
  33   15   44 1
  34   15   45 1
  35   16   17 1
  36   16   46 1
  37   16   47 1
  38   17   18 am
  39   17   22 am
  40   18   19 1
  41   18   28 2
  42   19   20 1
  43   19   48 1
  44   19   49 1
  45   20   21 1
  46   20   23 1
  47   20   26 1
  48   21   22 1
  49   21   50 1
  50   21   51 1
  51   22   27 2
  52   23   24 1
  53   23   52 1
  54   23   53 1
  55   24   25 1
  56   24   54 1
  57   24   55 1
  58   25   26 1
  59   25   56 1
  60   25   57 1
  61   26   58 1
  62   26   59 1

#	End of record

