#	Name: ASD04590607
#	Creating user name:	WinNT
#	Creation time:	15. 06. 2019 20:51

#	Modifying user name:	WinNT
#	Modification time:	15. 06. 2019 20:51

#	Program:	/corina/corina34_cracker 3.40 0067  02.08.2006

@<TRIPOS>MOLECULE
ASD04590607
  64   69    0    0    0
SMALL
NO_CHARGES


@<TRIPOS>ATOM
   1 N1            -0.0171     1.3241    -0.0119 N.ar    
   2 C2             0.0017    -0.0035    -0.0052 C.ar    
   3 N3             1.1288    -0.6959    -0.0118 N.ar    
   4 C4             2.3046    -0.0743    -0.0262 C.ar    
   5 C5             2.3193     1.3366    -0.0342 C.ar    
   6 C6             1.1058     2.0215    -0.0262 C.ar    
   7 N7             3.6008    -0.5159    -0.0358 N.pl3   
   8 C8             4.4753     0.5585    -0.0499 C.2     
   9 C9             3.7292     1.7374    -0.0495 C.2     
  10 C10            5.8821     0.6500    -0.0639 C.2     
  11 N11            6.4768     1.8578    -0.0765 N.am    
  12 C12            5.7480     3.0100    -0.0761 C.2     
  13 C13            4.4006     2.9807    -0.0622 C.2     
  14 N14           -1.2017    -0.6878     0.0098 N.pl3   
  15 C15           -2.4013     0.0135     0.1303 C.ar    
  16 C16            4.0052    -1.9240    -0.0309 C.3     
  17 N17           -2.3771     1.3212     0.3309 N.ar    
  18 C18           -3.4868     2.0251     0.4509 C.ar    
  19 C19           -4.7278     1.4114     0.3703 C.ar    
  20 C20           -4.7929     0.0349     0.1596 C.ar    
  21 C21           -3.6092    -0.6687     0.0326 C.ar    
  22 N22           -5.9006     2.1649     0.4995 N.3     
  23 C23            3.4069    -2.6414     1.1967 C.3     
  24 C24            3.4446    -2.6376    -1.2736 C.3     
  25 C25            2.5252    -3.7638    -0.7577 C.3     
  26 C26            2.1101    -3.2962     0.6594 C.3     
  27 C27           -6.7458     1.6421     1.5820 C.3     
  28 C28           -5.5929     3.5856     0.7148 C.3     
  29 C29           -6.8971     4.3845     0.7711 C.3     
  30 N30           -7.7423     3.8618     1.8537 N.3     
  31 C31           -8.0501     2.4410     1.6384 C.3     
  32 O32            6.5602    -0.3648    -0.0641 O.2     
  33 C33           -6.5820     5.8581     1.0358 C.3     
  34 C34           -8.8066     2.2769     0.3187 C.3     
  35 H35            1.0830     3.1012    -0.0320 H       
  36 H36            7.4454     1.9094    -0.0857 H       
  37 H37            6.2586     3.9616    -0.0861 H       
  38 H38            3.8373     3.9021    -0.0618 H       
  39 H39           -1.2106    -1.6550    -0.0635 H       
  40 H40            5.0925    -1.9998    -0.0155 H       
  41 H41           -3.4279     3.0911     0.6140 H       
  42 H42           -5.7456    -0.4696     0.0929 H       
  43 H43           -3.6225    -1.7360    -0.1317 H       
  44 H44            4.0939    -3.4027     1.5660 H       
  45 H45            3.1741    -1.9228     1.9826 H       
  46 H46            2.8717    -1.9363    -1.8802 H       
  47 H47            4.2598    -3.0606    -1.8607 H       
  48 H48            1.6490    -3.8644    -1.3982 H       
  49 H49            3.0699    -4.7065    -0.7040 H       
  50 H50            1.8218    -4.1463     1.2777 H       
  51 H51            1.3029    -2.5658     0.6041 H       
  52 H52           -6.9703     0.5923     1.3935 H       
  53 H53           -6.2200     1.7370     2.5321 H       
  54 H54           -5.0539     3.7025     1.6549 H       
  55 H55           -4.9767     3.9527    -0.1061 H       
  56 H56           -7.4230     4.2897    -0.1789 H       
  57 H57           -7.3080     4.0054     2.7530 H       
  58 H58           -8.6662     2.0740     2.4592 H       
  59 H59           -5.9535     6.2450     0.2336 H       
  60 H60           -7.5110     6.4268     1.0758 H       
  61 H61           -6.0570     5.9524     1.9863 H       
  62 H62           -8.1897     2.6432    -0.5018 H       
  63 H63           -9.0348     1.2230     0.1593 H       
  64 H64           -9.7345     2.8475     0.3585 H       
@<TRIPOS>BOND
   1    1    2 ar
   2    1    6 ar
   3    2    3 ar
   4    2   14 1
   5    3    4 ar
   6    4    5 ar
   7    4    7 1
   8    5    6 ar
   9    5    9 1
  10    6   35 1
  11    7    8 1
  12    7   16 1
  13    8    9 2
  14    8   10 1
  15    9   13 1
  16   10   11 am
  17   10   32 2
  18   11   12 1
  19   11   36 1
  20   12   13 2
  21   12   37 1
  22   13   38 1
  23   14   15 1
  24   14   39 1
  25   15   17 ar
  26   15   21 ar
  27   16   24 1
  28   16   23 1
  29   16   40 1
  30   17   18 ar
  31   18   19 ar
  32   18   41 1
  33   19   20 ar
  34   19   22 1
  35   20   21 ar
  36   20   42 1
  37   21   43 1
  38   22   28 1
  39   22   27 1
  40   23   26 1
  41   23   44 1
  42   23   45 1
  43   24   25 1
  44   24   46 1
  45   24   47 1
  46   25   26 1
  47   25   48 1
  48   25   49 1
  49   26   50 1
  50   26   51 1
  51   27   31 1
  52   27   52 1
  53   27   53 1
  54   28   29 1
  55   28   54 1
  56   28   55 1
  57   29   30 1
  58   29   33 1
  59   29   56 1
  60   30   31 1
  61   30   57 1
  62   31   34 1
  63   31   58 1
  64   33   59 1
  65   33   60 1
  66   33   61 1
  67   34   62 1
  68   34   63 1
  69   34   64 1

#	End of record

