#	Name: ASD04910468
#	Creating user name:	WinNT
#	Creation time:	15. 06. 2019 20:55

#	Modifying user name:	WinNT
#	Modification time:	15. 06. 2019 20:55

#	Program:	/corina/corina34_cracker 3.40 0067  02.08.2006

@<TRIPOS>MOLECULE
ASD04910468
  60   62    0    0    0
SMALL
NO_CHARGES


@<TRIPOS>ATOM
   1 C1            -0.3757     1.6754    -1.9224 C.2     
   2 C2            -0.2968     0.1869    -1.7007 C.3     
   3 C3             1.1683    -0.2536    -1.7128 C.3     
   4 O4             0.6361     2.3180    -2.0744 O.2     
   5 O5            -1.5704     2.2864    -1.9565 O.3     
   6 C6             2.4443    -2.3150    -1.4686 C.2     
   7 C7             2.5217    -3.7754    -1.2511 C.ar    
   8 C8             3.7620    -4.4147    -1.2209 C.ar    
   9 C9             3.8273    -5.7776    -1.0171 C.ar    
  10 C10            2.6667    -6.5105    -0.8433 C.ar    
  11 C11            1.4340    -5.8829    -0.8722 C.ar    
  12 C12            1.3551    -4.5198    -1.0694 C.ar    
  13 O13            3.4622    -1.6685    -1.6216 O.2     
  14 N14            1.2450    -1.7006    -1.4973 N.am    
  15 C15            2.7456    -7.9991    -0.6221 C.3     
  16 C16            2.5983    -8.3014     0.8705 C.3     
  17 C17            2.8026    -9.7987     1.1102 C.3     
  18 C18            2.6553   -10.1010     2.6028 C.3     
  19 O19            1.6951    -8.6444    -1.3447 O.3     
  20 C20            0.9674   -10.6009    -2.4945 C.ar    
  21 C21            1.9562    -9.8843    -1.8376 C.ar    
  22 C22            3.2193   -10.4497    -1.6895 C.ar    
  23 C23            3.4403   -11.7140    -2.2074 C.ar    
  24 C24            2.4015   -12.3721    -2.8533 C.ar    
  25 N25            1.2132   -11.8035    -2.9760 N.ar    
  26 N26            2.6143   -13.6507    -3.3805 N.pl3   
  27 N27            3.5551   -14.5845    -2.9271 N.2     
  28 C28            3.4554   -15.6590    -3.6669 C.2     
  29 C29            2.4493   -15.4487    -4.6164 C.2     
  30 C30            1.9417   -14.2101    -4.4193 C.2     
  31 C31            2.0052   -16.4312    -5.6693 C.3     
  32 F32            2.7573   -17.6056    -5.5581 F       
  33 F33            0.6497   -16.7267    -5.4892 F       
  34 F34            2.1964   -15.8733    -6.9379 F       
  35 C35            4.7911   -12.3683    -2.0727 C.3     
  36 H36           -0.7429    -0.0612    -0.7376 H       
  37 H37           -0.8375    -0.3279    -2.4949 H       
  38 H38            1.6144    -0.0055    -2.6759 H       
  39 H39            1.7090     0.2612    -0.9186 H       
  40 H40           -1.5705     3.2425    -2.1014 H       
  41 H41            4.6686    -3.8438    -1.3571 H       
  42 H42            4.7864    -6.2736    -0.9934 H       
  43 H43            0.5318    -6.4607    -0.7359 H       
  44 H44            0.3925    -4.0303    -1.0873 H       
  45 H45            0.4327    -2.2165    -1.3752 H       
  46 H46            3.7088    -8.3682    -0.9742 H       
  47 H47            3.3451    -7.7386     1.4306 H       
  48 H48            1.6012    -8.0129     1.2030 H       
  49 H49            2.0558   -10.3615     0.5501 H       
  50 H50            3.7997   -10.0872     0.7777 H       
  51 H51            3.4021    -9.5382     3.1629 H       
  52 H52            1.6582    -9.8125     2.9353 H       
  53 H53            2.8008   -11.1676     2.7735 H       
  54 H54           -0.0165   -10.1707    -2.6095 H       
  55 H55            4.0085    -9.9143    -1.1826 H       
  56 H56            4.0489   -16.5553    -3.5628 H       
  57 H57            1.1472   -13.7487    -4.9870 H       
  58 H58            4.7904   -13.0280    -1.2050 H       
  59 H59            5.0048   -12.9487    -2.9702 H       
  60 H60            5.5552   -11.6014    -1.9455 H       
@<TRIPOS>BOND
   1    1    2 1
   2    1    4 2
   3    1    5 1
   4    2    3 1
   5    2   36 1
   6    2   37 1
   7    3   14 1
   8    3   38 1
   9    3   39 1
  10    5   40 1
  11    6    7 1
  12    6   13 2
  13    6   14 am
  14    7    8 ar
  15    7   12 ar
  16    8    9 ar
  17    8   41 1
  18    9   10 ar
  19    9   42 1
  20   10   11 ar
  21   10   15 1
  22   11   12 ar
  23   11   43 1
  24   12   44 1
  25   14   45 1
  26   15   16 1
  27   15   19 1
  28   15   46 1
  29   16   17 1
  30   16   47 1
  31   16   48 1
  32   17   18 1
  33   17   49 1
  34   17   50 1
  35   18   51 1
  36   18   52 1
  37   18   53 1
  38   19   21 1
  39   20   21 ar
  40   20   25 ar
  41   20   54 1
  42   21   22 ar
  43   22   23 ar
  44   22   55 1
  45   23   24 ar
  46   23   35 1
  47   24   25 ar
  48   24   26 1
  49   26   27 1
  50   26   30 1
  51   27   28 2
  52   28   29 1
  53   28   56 1
  54   29   30 2
  55   29   31 1
  56   30   57 1
  57   31   32 1
  58   31   33 1
  59   31   34 1
  60   35   58 1
  61   35   59 1
  62   35   60 1

#	End of record

