#	Name: ASD04882386
#	Creating user name:	WinNT
#	Creation time:	15. 06. 2019 20:54

#	Modifying user name:	WinNT
#	Modification time:	15. 06. 2019 20:54

#	Program:	/corina/corina34_cracker 3.40 0067  02.08.2006

@<TRIPOS>MOLECULE
ASD04882386
  72   77    0    0    0
SMALL
NO_CHARGES


@<TRIPOS>ATOM
   1 N1            -0.0380     1.4836     0.0764 N.am    
   2 C2             0.2259     0.1151    -0.0663 C.ar    
   3 C3            -0.8248    -0.8062    -0.0405 C.ar    
   4 C4            -0.5644    -2.1644    -0.1825 C.ar    
   5 C5             0.7291    -2.6071    -0.3485 C.ar    
   6 C6             1.7845    -1.6911    -0.3753 C.ar    
   7 C7             1.5249    -0.3245    -0.2385 C.ar    
   8 N8            -2.1341    -0.3632     0.1281 N.3     
   9 C9            -2.9703    -0.7423    -1.0194 C.3     
  10 C10           -2.7049    -0.8722     1.3829 C.3     
  11 C11           -4.1121    -0.3000     1.5693 C.3     
  12 N12           -4.9482    -0.6791     0.4218 N.3     
  13 C13           -4.3775    -0.1701    -0.8331 C.3     
  14 C14            3.1700    -2.1655    -0.5532 C.2     
  15 O15            3.4112    -3.3572    -0.5388 O.2     
  16 C16            0.8046     2.3914    -0.4550 C.2     
  17 C17            0.4854     3.8205    -0.3791 C.2     
  18 O18            1.8304     2.0249    -0.9980 O.2     
  19 C19           -6.2616    -0.2347     0.5909 C.ar    
  20 C20           -6.5245     1.1216     0.7334 C.ar    
  21 C21           -7.3084    -1.1479     0.6112 C.ar    
  22 C22           -8.6056    -0.7052     0.7786 C.ar    
  23 C23           -8.8634     0.6457     0.9255 C.ar    
  24 C24           -7.8244     1.5576     0.9005 C.ar    
  25 O25           -0.6121     4.3584     0.1921 O.3     
  26 C26            1.2500     4.8406    -0.8688 C.2     
  27 C27            0.5681     6.0321    -0.5765 C.2     
  28 C28           -0.5667     5.6918     0.0734 C.2     
  29 N29            4.1686    -1.2780    -0.7317 N.am    
  30 C30            4.0606     0.1826    -0.6645 C.3     
  31 C31            5.4302     0.7568    -0.9281 C.ar    
  32 C32            6.3159    -0.2832    -1.1421 C.ar    
  33 C33            5.5712    -1.5892    -1.0237 C.3     
  34 C34            5.8723     2.0692    -0.9778 C.ar    
  35 C35            7.1969     2.3475    -1.2406 C.ar    
  36 C36            8.0958     1.3023    -1.4575 C.ar    
  37 C37            7.6454    -0.0172    -1.4063 C.ar    
  38 C38            9.5179     1.5917    -1.7399 C.2     
  39 O39           10.2981     0.6789    -1.9283 O.2     
  40 N40            9.9492     2.8677    -1.7885 N.am    
  41 C41           -7.0286    -2.6199     0.4503 C.3     
  42 H42           -0.8293     1.7776     0.5542 H       
  43 H43           -1.3783    -2.8741    -0.1622 H       
  44 H44            0.9282    -3.6629    -0.4579 H       
  45 H45            2.3384     0.3856    -0.2587 H       
  46 H46           -2.5338    -0.3433    -1.9351 H       
  47 H47           -3.0254    -1.8289    -1.0860 H       
  48 H48           -2.7570    -1.9603     1.3437 H       
  49 H49           -2.0749    -0.5679     2.2188 H       
  50 H50           -4.5486    -0.6990     2.4849 H       
  51 H51           -4.0569     0.7866     1.6358 H       
  52 H52           -4.3253     0.9180    -0.7938 H       
  53 H53           -5.0074    -0.4744    -1.6689 H       
  54 H54           -5.7134     1.8345     0.7140 H       
  55 H55           -9.4198    -1.4146     0.7945 H       
  56 H56           -9.8789     0.9893     1.0556 H       
  57 H57           -8.0292     2.6118     1.0156 H       
  58 H58            2.1961     4.7483    -1.3813 H       
  59 H59            0.8909     7.0330    -0.8225 H       
  60 H60           -1.3142     6.3814     0.4370 H       
  61 H61            3.3600     0.5364    -1.4208 H       
  62 H62            3.7188     0.4825     0.3261 H       
  63 H63            5.9983    -2.1863    -0.2180 H       
  64 H64            5.6344    -2.1370    -1.9640 H       
  65 H65            5.1760     2.8776    -0.8102 H       
  66 H66            7.5378     3.3716    -1.2789 H       
  67 H67            8.3362    -0.8305    -1.5729 H       
  68 H68            9.3265     3.5961    -1.6381 H       
  69 H69           10.8822     3.0575    -1.9738 H       
  70 H70           -6.8608    -3.0672     1.4300 H       
  71 H71           -7.8814    -3.1018    -0.0278 H       
  72 H72           -6.1411    -2.7556    -0.1679 H       
@<TRIPOS>BOND
   1    1    2 1
   2    1   16 am
   3    1   42 1
   4    2    3 ar
   5    2    7 ar
   6    3    4 ar
   7    3    8 1
   8    4    5 ar
   9    4   43 1
  10    5    6 ar
  11    5   44 1
  12    6    7 ar
  13    6   14 1
  14    7   45 1
  15    8    9 1
  16    8   10 1
  17    9   13 1
  18    9   46 1
  19    9   47 1
  20   10   11 1
  21   10   48 1
  22   10   49 1
  23   11   12 1
  24   11   50 1
  25   11   51 1
  26   12   13 1
  27   12   19 1
  28   13   52 1
  29   13   53 1
  30   14   15 2
  31   14   29 am
  32   16   18 2
  33   16   17 1
  34   17   25 1
  35   17   26 2
  36   19   20 ar
  37   19   21 ar
  38   20   24 ar
  39   20   54 1
  40   21   22 ar
  41   21   41 1
  42   22   23 ar
  43   22   55 1
  44   23   24 ar
  45   23   56 1
  46   24   57 1
  47   25   28 1
  48   26   27 1
  49   26   58 1
  50   27   28 2
  51   27   59 1
  52   28   60 1
  53   29   30 1
  54   29   33 1
  55   30   31 1
  56   30   61 1
  57   30   62 1
  58   31   32 ar
  59   31   34 ar
  60   32   33 1
  61   32   37 ar
  62   33   63 1
  63   33   64 1
  64   34   35 ar
  65   34   65 1
  66   35   36 ar
  67   35   66 1
  68   36   37 ar
  69   36   38 1
  70   37   67 1
  71   38   39 2
  72   38   40 am
  73   40   68 1
  74   40   69 1
  75   41   70 1
  76   41   71 1
  77   41   72 1

#	End of record

