#	Name: ASD02500146
#	Creating user name:	WinNT
#	Creation time:	15. 06. 2019 20:22

#	Modifying user name:	WinNT
#	Modification time:	15. 06. 2019 20:22

#	Program:	/corina/corina34_cracker 3.40 0067  02.08.2006

@<TRIPOS>MOLECULE
ASD02500146
  66   70    0    0    0
SMALL
NO_CHARGES


@<TRIPOS>ATOM
   1 N1             1.1579     3.3180     1.0177 N.ar    
   2 C2             2.1525     2.9349     1.7807 C.ar    
   3 C3             3.3335     2.4252     1.2450 C.ar    
   4 C4             3.4757     2.3142    -0.1088 C.ar    
   5 C5             2.4053     2.7261    -0.9250 C.ar    
   6 C6             2.4787     2.6424    -2.3245 C.ar    
   7 C7             1.4218     3.0515    -3.0794 C.ar    
   8 C8             0.2677     3.5529    -2.4814 C.ar    
   9 C9             0.1626     3.6480    -1.1278 C.ar    
  10 C10            1.2324     3.2358    -0.3145 C.ar    
  11 S11           -1.3084     4.2865    -0.3976 S.o2    
  12 O12           -0.8951     5.2550     0.5565 O.2     
  13 O13           -2.1937     4.5802    -1.4697 O.2     
  14 N14           -2.0053     3.0531     0.4598 N.am    
  15 C15           -2.4447     1.9101    -0.1988 C.ar    
  16 C16           -2.1279     0.6521     0.3065 C.ar    
  17 C17           -2.5612    -0.4810    -0.3430 C.ar    
  18 C18           -3.3204    -0.3680    -1.5114 C.ar    
  19 C19           -3.6369     0.8966    -2.0163 C.ar    
  20 C20           -3.2054     2.0260    -1.3590 C.ar    
  21 C21           -3.7862    -1.5807    -2.2104 C.2     
  22 O22           -4.9113    -1.6235    -2.6695 O.2     
  23 N23           -2.9646    -2.6412    -2.3402 N.am    
  24 C24           -3.3894    -3.8285    -3.0949 C.3     
  25 C25           -2.3503    -4.1131    -4.1864 C.3     
  26 N26           -1.0133    -4.1027    -3.5762 N.am    
  27 C27           -0.5885    -2.9153    -2.8216 C.3     
  28 C28           -1.6255    -2.6284    -1.7348 C.3     
  29 C29           -0.1917    -5.1631    -3.7060 C.2     
  30 O30           -0.5809    -6.1670    -4.2643 O.2     
  31 C31            1.2105    -5.1015    -3.1575 C.3     
  32 C32            1.8564    -6.4853    -3.2519 C.3     
  33 C33            3.2800    -6.4227    -2.6950 C.3     
  34 C34            4.1018    -5.4199    -3.5074 C.3     
  35 C35            3.4560    -4.0361    -3.4130 C.3     
  36 C36            2.0323    -4.0987    -3.9699 C.3     
  37 H37            2.0542     3.0169     2.8531 H       
  38 H38            4.1358     2.1185     1.8997 H       
  39 H39            4.3843     1.9217    -0.5411 H       
  40 H40            3.3683     2.2562    -2.7996 H       
  41 H41            1.4791     2.9867    -4.1560 H       
  42 H42           -0.5568     3.8716    -3.1020 H       
  43 H43           -2.1070     3.1280     1.4216 H       
  44 H44           -1.5410     0.5654     1.2090 H       
  45 H45           -2.3148    -1.4566     0.0493 H       
  46 H46           -4.2229     0.9872    -2.9189 H       
  47 H47           -3.4535     3.0033    -1.7459 H       
  48 H48           -3.4577    -4.6840    -2.4229 H       
  49 H49           -4.3604    -3.6422    -3.5538 H       
  50 H50           -2.5428    -5.0905    -4.6289 H       
  51 H51           -2.4074    -3.3430    -4.9556 H       
  52 H52            0.3825    -3.1016    -2.3627 H       
  53 H53           -0.5202    -2.0598    -3.4936 H       
  54 H54           -1.4318    -1.6498    -1.2957 H       
  55 H55           -1.5653    -3.3965    -0.9637 H       
  56 H56            1.1793    -4.7855    -2.1148 H       
  57 H57            1.2709    -7.1997    -2.6731 H       
  58 H58            1.8876    -6.8013    -4.2946 H       
  59 H59            3.2488    -6.1067    -1.6523 H       
  60 H60            3.7401    -7.4086    -2.7622 H       
  61 H61            5.1161    -5.3754    -3.1107 H       
  62 H62            4.1331    -5.7360    -4.5501 H       
  63 H63            3.4247    -3.7201    -2.3703 H       
  64 H64            4.0415    -3.3217    -3.9918 H       
  65 H65            2.0636    -4.4147    -5.0126 H       
  66 H66            1.5722    -3.1129    -3.9027 H       
@<TRIPOS>BOND
   1    1    2 ar
   2    1   10 ar
   3    2    3 ar
   4    2   37 1
   5    3    4 ar
   6    3   38 1
   7    4    5 ar
   8    4   39 1
   9    5    6 ar
  10    5   10 ar
  11    6    7 ar
  12    6   40 1
  13    7    8 ar
  14    7   41 1
  15    8    9 ar
  16    8   42 1
  17    9   10 ar
  18    9   11 1
  19   11   12 2
  20   11   13 2
  21   11   14 am
  22   14   15 1
  23   14   43 1
  24   15   16 ar
  25   15   20 ar
  26   16   17 ar
  27   16   44 1
  28   17   18 ar
  29   17   45 1
  30   18   19 ar
  31   18   21 1
  32   19   20 ar
  33   19   46 1
  34   20   47 1
  35   21   22 2
  36   21   23 am
  37   23   24 1
  38   23   28 1
  39   24   25 1
  40   24   48 1
  41   24   49 1
  42   25   26 1
  43   25   50 1
  44   25   51 1
  45   26   27 1
  46   26   29 am
  47   27   28 1
  48   27   52 1
  49   27   53 1
  50   28   54 1
  51   28   55 1
  52   29   30 2
  53   29   31 1
  54   31   32 1
  55   31   36 1
  56   31   56 1
  57   32   33 1
  58   32   57 1
  59   32   58 1
  60   33   34 1
  61   33   59 1
  62   33   60 1
  63   34   35 1
  64   34   61 1
  65   34   62 1
  66   35   36 1
  67   35   63 1
  68   35   64 1
  69   36   65 1
  70   36   66 1

#	End of record

