#	Name: ASD03740275
#	Creating user name:	WinNT
#	Creation time:	15. 06. 2019 20:47

#	Modifying user name:	WinNT
#	Modification time:	15. 06. 2019 20:47

#	Program:	/corina/corina34_cracker 3.40 0067  02.08.2006

@<TRIPOS>MOLECULE
ASD03740275
  62   65    0    0    0
SMALL
NO_CHARGES


@<TRIPOS>ATOM
   1 Cl1            3.2012    -8.7593     2.0480 Cl      
   2 C2             3.5729    -2.1491     2.9244 C.ar    
   3 C3             2.5515    -2.4518     2.0525 C.ar    
   4 C4             4.3480    -1.0167     2.7466 C.ar    
   5 C5            -1.1056    -7.6323     1.3735 C.ar    
   6 C6            -0.7534    -8.3736     2.4853 C.ar    
   7 C7             1.1853    -7.5821     0.6767 C.ar    
   8 C8             2.2784    -1.6113     0.9625 C.ar    
   9 C9            -0.1369    -7.2366     0.4698 C.ar    
  10 C10            4.0919    -0.1745     1.6742 C.ar    
  11 C11            0.5705    -8.7204     2.6947 C.ar    
  12 C12            3.0793    -0.4725     0.8080 C.ar    
  13 C13            1.5407    -8.3243     1.7884 C.ar    
  14 C14            1.2578    -1.7166    -0.0930 C.2     
  15 C15            0.3107    -2.8481    -0.1096 C.2     
  16 C16           -1.0013    -2.7836     0.2501 C.2     
  17 C17            0.6317    -4.2169    -0.5216 C.2     
  18 C18           -1.5657    -4.1743     0.0713 C.3     
  19 C19           -2.1328    -3.7935    -2.3320 C.3     
  20 C20           -3.3520    -5.5369    -1.0219 C.3     
  21 C21           -3.7430    -3.1156    -0.5460 C.3     
  22 C22            5.5263     4.1786     0.5630 C.3     
  23 C23           -0.5230    -6.4284    -0.7421 C.3     
  24 C24            4.9265     1.0630     1.4668 C.3     
  25 C25           -2.6984    -4.1551    -0.9572 C.3     
  26 N26            1.2039    -0.7988    -1.0080 N.am    
  27 N27           -0.4562    -5.0011    -0.4186 N.am    
  28 N28            4.2013     2.2314     1.9719 N.am    
  29 O29            1.7250    -4.5905    -0.9028 O.2     
  30 O30            1.8021     1.5080    -0.2521 O.2     
  31 O31            3.4031     0.1898    -1.6687 O.2     
  32 O32            6.1279     3.2973     3.0085 O.2     
  33 O33            4.0056     4.5370     2.7258 O.2     
  34 O34           -1.6643    -1.6963     0.6807 O.3     
  35 S35            2.4198     0.2911    -0.6479 S.o2    
  36 S36            5.0023     3.6594     2.2202 S.o2    
  37 F37            0.9159    -9.4446     3.7816 F       
  38 H38            3.7692    -2.8024     3.7617 H       
  39 H39            1.9578    -3.3405     2.2078 H       
  40 H40            5.1463    -0.7899     3.4378 H       
  41 H41           -2.1390    -7.3658     1.2079 H       
  42 H42           -1.5106    -8.6821     3.1909 H       
  43 H43            1.9411    -7.2727    -0.0301 H       
  44 H44           -1.9310    -4.5567     1.0244 H       
  45 H45           -1.3886    -4.5341    -2.6250 H       
  46 H46           -2.9397    -3.7799    -3.0647 H       
  47 H47           -1.6672    -2.8091    -2.2859 H       
  48 H48           -3.3853    -5.9703    -0.0223 H       
  49 H49           -4.3659    -5.4415    -1.4105 H       
  50 H50           -2.7704    -6.1835    -1.6790 H       
  51 H51           -3.2774    -2.1311    -0.4999 H       
  52 H52           -4.5499    -3.1019    -1.2787 H       
  53 H53           -4.1459    -3.3731     0.4335 H       
  54 H54            4.6494     4.3089    -0.0712 H       
  55 H55            6.0681     5.1219     0.6321 H       
  56 H56            6.1763     3.4170     0.1322 H       
  57 H57            0.1638    -6.6482    -1.5594 H       
  58 H58           -1.5389    -6.6858    -1.0419 H       
  59 H59            5.8690     0.9599     2.0046 H       
  60 H60            5.1273     1.1918     0.4033 H       
  61 H61            3.2520     2.1686     2.1608 H       
  62 H62           -1.1464    -0.8907     0.8142 H       
@<TRIPOS>BOND
   1    1   13 1
   2    2    3 ar
   3    2    4 ar
   4    2   38 1
   5    3    8 ar
   6    3   39 1
   7    4   10 ar
   8    4   40 1
   9    5    6 ar
  10    5    9 ar
  11    5   41 1
  12    6   11 ar
  13    6   42 1
  14    7    9 ar
  15    7   13 ar
  16    7   43 1
  17    8   12 ar
  18    8   14 1
  19    9   23 1
  20   10   12 ar
  21   10   24 1
  22   11   13 ar
  23   11   37 1
  24   12   35 1
  25   14   15 1
  26   14   26 2
  27   15   16 2
  28   15   17 1
  29   16   18 1
  30   16   34 1
  31   17   27 am
  32   17   29 2
  33   18   25 1
  34   18   27 1
  35   18   44 1
  36   19   25 1
  37   19   45 1
  38   19   46 1
  39   19   47 1
  40   20   25 1
  41   20   48 1
  42   20   49 1
  43   20   50 1
  44   21   25 1
  45   21   51 1
  46   21   52 1
  47   21   53 1
  48   22   36 1
  49   22   54 1
  50   22   55 1
  51   22   56 1
  52   23   27 1
  53   23   57 1
  54   23   58 1
  55   24   28 1
  56   24   59 1
  57   24   60 1
  58   26   35 am
  59   28   36 am
  60   28   61 1
  61   30   35 2
  62   31   35 2
  63   32   36 2
  64   33   36 2
  65   34   62 1

#	End of record

