#	Name: ASD02038170
#	Creating user name:	WinNT
#	Creation time:	15. 06. 2019 20:16

#	Modifying user name:	WinNT
#	Modification time:	15. 06. 2019 20:16

#	Program:	/corina/corina34_cracker 3.40 0067  02.08.2006

@<TRIPOS>MOLECULE
ASD02038170
  59   61    0    0    0
SMALL
NO_CHARGES


@<TRIPOS>ATOM
   1 C1             0.1768     1.6495     0.0569 C.3     
   2 C2             0.0997     0.1261     0.1819 C.3     
   3 N3             0.5949    -0.4901    -1.0569 N.3     
   4 C4             0.4664    -1.9526    -1.0053 C.3     
   5 C5             1.5740    -2.5311    -0.1225 C.3     
   6 C6             1.5325    -4.0591    -0.1877 C.3     
   7 O7             2.6368    -4.5972     0.5423 O.3     
   8 C8             2.7479    -5.9518     0.5841 C.ar    
   9 C9             3.7966    -6.5404     1.2755 C.ar    
  10 C10            1.8093    -6.7446    -0.0598 C.ar    
  11 C11            1.9210    -8.1204    -0.0170 C.ar    
  12 C12            2.9734    -8.7100     0.6704 C.ar    
  13 C13            3.9100    -7.9160     1.3183 C.ar    
  14 N14            3.0871   -10.1061     0.7146 N.am    
  15 C15            1.9849    -0.0926    -1.3204 C.3     
  16 C16            2.0620     1.4309    -1.4454 C.3     
  17 N17            1.5668     2.0471    -0.2066 N.3     
  18 C18            1.6890     3.4376    -0.2557 C.ar    
  19 C19            1.2757     4.2112     0.8215 C.ar    
  20 C20            1.3983     5.5858     0.7699 C.ar    
  21 C21            1.9319     6.1922    -0.3526 C.ar    
  22 C22            2.3444     5.4251    -1.4267 C.ar    
  23 C23            2.2294     4.0497    -1.3795 C.ar    
  24 C24            2.6875   -10.8485    -0.3369 C.2     
  25 N25            2.7016   -12.1937    -0.2563 N.am    
  26 O26            2.3143   -10.3045    -1.3583 O.2     
  27 C27            2.0638     7.6925    -0.4055 C.3     
  28 O28            1.3776    -2.1064     1.2277 O.3     
  29 C29            3.4277     8.1046     0.1521 C.3     
  30 H30           -0.4579     1.9795    -0.7655 H       
  31 H31           -0.1628     2.1083     0.9855 H       
  32 H32            0.7130    -0.2014     1.0213 H       
  33 H33           -0.9351    -0.1732     0.3485 H       
  34 H34           -0.5056    -2.2175    -0.5890 H       
  35 H35            0.5538    -2.3608    -2.0122 H       
  36 H36            2.5426    -2.1785    -0.4770 H       
  37 H37            0.5997    -4.4161     0.2490 H       
  38 H38            1.5932    -4.3802    -1.2275 H       
  39 H39            4.5248    -5.9227     1.7801 H       
  40 H40            0.9907    -6.2858    -0.5944 H       
  41 H41            1.1898    -8.7375    -0.5177 H       
  42 H42            4.7289    -8.3741     1.8531 H       
  43 H43            3.4534   -10.5382     1.5021 H       
  44 H44            2.6196    -0.4226    -0.4980 H       
  45 H45            2.3245    -0.5513    -2.2490 H       
  46 H46            3.0968     1.7301    -1.6121 H       
  47 H47            1.4487     1.7584    -2.2849 H       
  48 H48            0.8585     3.7382     1.6982 H       
  49 H49            1.0768     6.1879     1.6069 H       
  50 H50            2.7607     5.9019    -2.3017 H       
  51 H51            2.5521     3.4511    -2.2186 H       
  52 H52            2.9994   -12.6277     0.5585 H       
  53 H53            2.4141   -12.7280    -1.0131 H       
  54 H54            1.9771     8.0286    -1.4388 H       
  55 H55            1.2742     8.1480     0.1922 H       
  56 H56            0.5339    -2.3854     1.6090 H       
  57 H57            3.5144     7.7685     1.1853 H       
  58 H58            4.2172     7.6492    -0.4456 H       
  59 H59            3.5230     9.1898     0.1138 H       
@<TRIPOS>BOND
   1    1    2 1
   2    1   17 1
   3    1   30 1
   4    1   31 1
   5    2    3 1
   6    2   32 1
   7    2   33 1
   8    3    4 1
   9    3   15 1
  10    4    5 1
  11    4   34 1
  12    4   35 1
  13    5    6 1
  14    5   28 1
  15    5   36 1
  16    6    7 1
  17    6   37 1
  18    6   38 1
  19    7    8 1
  20    8    9 ar
  21    8   10 ar
  22    9   13 ar
  23    9   39 1
  24   10   11 ar
  25   10   40 1
  26   11   12 ar
  27   11   41 1
  28   12   13 ar
  29   12   14 1
  30   13   42 1
  31   14   24 am
  32   14   43 1
  33   15   16 1
  34   15   44 1
  35   15   45 1
  36   16   17 1
  37   16   46 1
  38   16   47 1
  39   17   18 1
  40   18   19 ar
  41   18   23 ar
  42   19   20 ar
  43   19   48 1
  44   20   21 ar
  45   20   49 1
  46   21   22 ar
  47   21   27 1
  48   22   23 ar
  49   22   50 1
  50   23   51 1
  51   24   25 am
  52   24   26 2
  53   25   52 1
  54   25   53 1
  55   27   29 1
  56   27   54 1
  57   27   55 1
  58   28   56 1
  59   29   57 1
  60   29   58 1
  61   29   59 1

#	End of record

