#	Name: ASD01916697
#	Creating user name:	WinNT
#	Creation time:	15. 06. 2019 20:07

#	Modifying user name:	WinNT
#	Modification time:	15. 06. 2019 20:07

#	Program:	/corina/corina34_cracker 3.40 0067  02.08.2006

@<TRIPOS>MOLECULE
ASD01916697
  38   40    0    0    0
SMALL
NO_CHARGES


@<TRIPOS>ATOM
   1 C1            -0.0168     1.3912     0.0097 C.ar    
   2 C2             0.0021    -0.0041     0.0020 C.ar    
   3 C3             1.2204    -0.6594    -0.0131 C.ar    
   4 C4             2.3820     0.1007    -0.0201 C.ar    
   5 C5             2.2905     1.4803    -0.0118 C.ar    
   6 N6             1.1180     2.0808     0.0026 N.ar    
   7 C7            -1.2697     2.0847     0.0194 C.1     
   8 C8            -2.2967     2.6533     0.0273 C.1     
   9 C9            -3.5846     3.3662     0.0372 C.3     
  10 C10           -3.3321     4.8752     0.0443 C.3     
  11 O11           -5.3503     5.9950    -1.0156 O.3     
  12 N12           -6.3669     6.5562    -0.6655 N.2     
  13 C13           -6.4345     6.5899     0.6405 C.2     
  14 N14           -5.3261     5.9758     1.1134 N.2     
  15 C15           -4.6505     5.6051     0.0544 C.2     
  16 C16           -7.5222     7.1897     1.4507 C.ar    
  17 C17           -8.6146     7.7954     0.8216 C.ar    
  18 C18           -9.6267     8.3529     1.5868 C.ar    
  19 C19           -9.5553     8.3101     2.9661 C.ar    
  20 C20           -8.4757     7.7114     3.5913 C.ar    
  21 C21           -7.4635     7.1472     2.8417 C.ar    
  22 O22           -8.6830     7.8375    -0.5340 O.3     
  23 C23           -9.8283     8.4723    -1.1063 C.3     
  24 F24           -9.8815     9.8055    -0.6857 F       
  25 F25           -9.7380     8.4268    -2.5017 F       
  26 F26          -10.9865     7.8060    -0.6920 F       
  27 H27           -0.9212    -0.5644     0.0082 H       
  28 H28            1.2668    -1.7384    -0.0190 H       
  29 H29            3.3484    -0.3812    -0.0315 H       
  30 H30            3.1928     2.0739    -0.0172 H       
  31 H31           -4.1555     3.0975    -0.8515 H       
  32 H32           -4.1471     3.0878     0.9284 H       
  33 H33           -2.7611     5.1440     0.9330 H       
  34 H34           -2.7695     5.1536    -0.8469 H       
  35 H35          -10.4719     8.8215     1.1046 H       
  36 H36          -10.3457     8.7462     3.5590 H       
  37 H37           -8.4269     7.6823     4.6698 H       
  38 H38           -6.6245     6.6773     3.3333 H       
@<TRIPOS>BOND
   1    1    2 ar
   2    1    6 ar
   3    1    7 1
   4    2    3 ar
   5    2   27 1
   6    3    4 ar
   7    3   28 1
   8    4    5 ar
   9    4   29 1
  10    5    6 ar
  11    5   30 1
  12    7    8 3
  13    8    9 1
  14    9   10 1
  15    9   31 1
  16    9   32 1
  17   10   15 1
  18   10   33 1
  19   10   34 1
  20   11   12 1
  21   11   15 1
  22   12   13 2
  23   13   14 1
  24   13   16 1
  25   14   15 2
  26   16   17 ar
  27   16   21 ar
  28   17   18 ar
  29   17   22 1
  30   18   19 ar
  31   18   35 1
  32   19   20 ar
  33   19   36 1
  34   20   21 ar
  35   20   37 1
  36   21   38 1
  37   22   23 1
  38   23   24 1
  39   23   25 1
  40   23   26 1

#	End of record

