#	Name: ASD03170006
#	Creating user name:	WinNT
#	Creation time:	15. 06. 2019 20:33

#	Modifying user name:	WinNT
#	Modification time:	15. 06. 2019 20:33

#	Program:	/corina/corina34_cracker 3.40 0067  02.08.2006

@<TRIPOS>MOLECULE
ASD03170006
  48   53    0    0    0
SMALL
NO_CHARGES


@<TRIPOS>ATOM
   1 O1             0.4318     0.1304     0.2302 O.2     
   2 C2             0.2942     1.3301     0.2250 C.2     
   3 C3             1.5038     2.1900     0.4375 C.3     
   4 C4             1.4633     3.3964    -0.5021 C.3     
   5 C5             0.1646     4.1643    -0.2605 C.3     
   6 C6            -1.0311     3.2898    -0.5996 C.3     
   7 C7            -1.0786     1.8927    -0.0000 C.3     
   8 O8            -1.7019     1.1243    -1.0740 O.3     
   9 C9            -1.3498     1.6715    -2.2574 C.ar    
  10 C10           -0.8926     2.9603    -2.0658 C.ar    
  11 C11           -0.3432     3.7688    -3.0340 C.ar    
  12 C12            0.2424     5.0858    -2.6416 C.3     
  13 C13            0.1088     5.3957    -1.1698 C.3     
  14 N14           -1.1342     6.1374    -0.9196 N.3     
  15 C15           -2.3216     5.3370    -1.2408 C.3     
  16 C16           -2.3304     4.0548    -0.3602 C.3     
  17 C17           -1.1438     7.4109    -1.6519 C.3     
  18 C18           -2.4659     8.1024    -1.4397 C.2     
  19 C19           -2.7671     8.9726    -0.4592 C.2     
  20 O20           -4.0424     9.3635    -0.6157 O.3     
  21 C21           -4.5693     8.7531    -1.6897 C.2     
  22 C22           -3.6258     7.9655    -2.2364 C.2     
  23 C23           -0.3658     3.2637    -4.3222 C.ar    
  24 C24           -0.8806     2.0011    -4.5677 C.ar    
  25 C25           -1.3692     1.1699    -3.5639 C.ar    
  26 O26           -1.8521    -0.0709    -3.8407 O.3     
  27 O27            0.0923     4.5649     1.1093 O.3     
  28 H28            1.5236     2.5370     1.4707 H       
  29 H29            2.4021     1.6059     0.2373 H       
  30 H30            2.3149     4.0460    -0.2996 H       
  31 H31            1.4991     3.0552    -1.5367 H       
  32 H32           -1.6642     1.8725     0.9191 H       
  33 H33            1.2980     5.0931    -2.9132 H       
  34 H34           -0.2641     5.8731    -3.1998 H       
  35 H35            0.9347     6.0490    -0.8882 H       
  36 H36           -3.2185     5.9255    -1.0475 H       
  37 H37           -2.2944     5.0543    -2.2931 H       
  38 H38           -3.1793     3.4290    -0.6356 H       
  39 H39           -2.4032     4.3320     0.6915 H       
  40 H40           -0.3381     8.0469    -1.2853 H       
  41 H41           -1.0005     7.2195    -2.7154 H       
  42 H42           -2.0971     9.3009     0.3217 H       
  43 H43           -5.5781     8.8769    -2.0549 H       
  44 H44           -3.7356     7.3423    -3.1117 H       
  45 H45            0.0191     3.8561    -5.1392 H       
  46 H46           -0.9001     1.6445    -5.5870 H       
  47 H47           -1.1839    -0.7692    -3.8086 H       
  48 H48            0.8182     5.1388     1.3900 H       
@<TRIPOS>BOND
   1    1    2 2
   2    2    3 1
   3    2    7 1
   4    3    4 1
   5    3   28 1
   6    3   29 1
   7    4    5 1
   8    4   30 1
   9    4   31 1
  10    5    6 1
  11    5   27 1
  12    5   13 1
  13    6   16 1
  14    6    7 1
  15    6   10 1
  16    7    8 1
  17    7   32 1
  18    8    9 1
  19    9   10 ar
  20    9   25 ar
  21   10   11 ar
  22   11   12 1
  23   11   23 ar
  24   12   13 1
  25   12   33 1
  26   12   34 1
  27   13   14 1
  28   13   35 1
  29   14   15 1
  30   14   17 1
  31   15   16 1
  32   15   36 1
  33   15   37 1
  34   16   38 1
  35   16   39 1
  36   17   18 1
  37   17   40 1
  38   17   41 1
  39   18   19 2
  40   18   22 1
  41   19   20 1
  42   19   42 1
  43   20   21 1
  44   21   22 2
  45   21   43 1
  46   22   44 1
  47   23   24 ar
  48   23   45 1
  49   24   25 ar
  50   24   46 1
  51   25   26 1
  52   26   47 1
  53   27   48 1

#	End of record

