#	Name: ASD03730744
#	Creating user name:	WinNT
#	Creation time:	15. 06. 2019 20:44

#	Modifying user name:	WinNT
#	Modification time:	15. 06. 2019 20:44

#	Program:	/corina/corina34_cracker 3.40 0067  02.08.2006

@<TRIPOS>MOLECULE
ASD03730744
  62   68    0    0    0
SMALL
NO_CHARGES


@<TRIPOS>ATOM
   1 C1             1.3683    -1.2042    -2.4895 C.2     
   2 C2             0.4775    -1.1516    -1.3110 C.ar    
   3 C3             0.7387    -0.2538    -0.2743 C.ar    
   4 C4            -0.0965    -0.2099     0.8226 C.ar    
   5 C5            -1.1912    -1.0532     0.8968 C.ar    
   6 C6            -1.4556    -1.9452    -0.1270 C.ar    
   7 C7            -0.6315    -1.9953    -1.2325 C.ar    
   8 O8             2.3103    -0.4406    -2.5739 O.2     
   9 N9             1.1393    -2.1025    -3.4677 N.am    
  10 C10            1.8651    -2.0368    -4.6613 C.ar    
  11 C11            1.3537    -2.6088    -5.8193 C.ar    
  12 C12            2.0729    -2.5422    -6.9962 C.ar    
  13 C13            3.3014    -1.9073    -7.0227 C.ar    
  14 C14            3.8132    -1.3371    -5.8718 C.ar    
  15 C15            3.0960    -1.3948    -4.6927 C.ar    
  16 C16            1.5189    -3.1623    -8.2530 C.3     
  17 F17            0.7523    -2.2159    -8.9413 F       
  18 F18            2.5739    -3.5888    -9.0668 F       
  19 F19            0.7162    -4.2580    -7.9177 F       
  20 C20            1.9306     0.6649    -0.3532 C.3     
  21 O21            0.1263    -0.7025     6.4707 O.3     
  22 C22            0.0869    -0.3746     7.8722 C.3     
  23 O23            1.3739     0.2209     8.1207 O.3     
  24 C24            1.7658     0.7565     6.9272 C.ar    
  25 C25            0.9989     0.1875     5.9129 C.ar    
  26 C26            2.7298     1.6996     6.6192 C.ar    
  27 C27            2.9425     2.0853     5.2991 C.ar    
  28 C28            2.1759     1.5038     4.2938 C.ar    
  29 C29            1.2097     0.5678     4.5982 C.ar    
  30 O30            3.8178     2.9978     4.7877 O.3     
  31 C31            2.6527     2.0955     2.9944 C.3     
  32 C32            3.9829     2.7588     3.3767 C.3     
  33 N33            2.0474     1.4217     0.8958 N.am    
  34 C34            2.8327     1.0539     1.9279 C.2     
  35 C35            1.6781     3.0834     2.4251 C.ar    
  36 C36            1.1153     4.2467     2.9007 C.ar    
  37 C37            0.2245     4.9569     2.1157 C.ar    
  38 C38           -0.0998     4.4952     0.8529 C.ar    
  39 C39            0.4605     3.3300     0.3725 C.ar    
  40 C40            1.3585     2.6089     1.1556 C.ar    
  41 O41            3.5452     0.0739     1.9839 O.2     
  42 H42            0.1046     0.4839     1.6255 H       
  43 H43           -1.8418    -1.0150     1.7580 H       
  44 H44           -2.3116    -2.6006    -0.0630 H       
  45 H45           -0.8418    -2.6888    -2.0333 H       
  46 H46            0.4710    -2.7946    -3.3439 H       
  47 H47            0.3948    -3.1052    -5.7992 H       
  48 H48            3.8623    -1.8572    -7.9443 H       
  49 H49            4.7730    -0.8424    -5.8958 H       
  50 H50            3.4942    -0.9449    -3.7952 H       
  51 H51            2.8344     0.0752    -0.5065 H       
  52 H52            1.8021     1.3561    -1.1861 H       
  53 H53           -0.7112     0.3393     8.0762 H       
  54 H54           -0.0408    -1.2752     8.4727 H       
  55 H55            3.3214     2.1394     7.4085 H       
  56 H56            0.6163     0.1300     3.8091 H       
  57 H57            4.1165     3.6970     2.8381 H       
  58 H58            4.8188     2.0836     3.1936 H       
  59 H59            1.3698     4.6052     3.8871 H       
  60 H60           -0.2164     5.8698     2.4880 H       
  61 H61           -0.7953     5.0496     0.2402 H       
  62 H62            0.2020     2.9756    -0.6144 H       
@<TRIPOS>BOND
   1    1    2 1
   2    1    8 2
   3    1    9 am
   4    2    3 ar
   5    2    7 ar
   6    3    4 ar
   7    3   20 1
   8    4    5 ar
   9    4   42 1
  10    5    6 ar
  11    5   43 1
  12    6    7 ar
  13    6   44 1
  14    7   45 1
  15    9   10 1
  16    9   46 1
  17   10   11 ar
  18   10   15 ar
  19   11   12 ar
  20   11   47 1
  21   12   13 ar
  22   12   16 1
  23   13   14 ar
  24   13   48 1
  25   14   15 ar
  26   14   49 1
  27   15   50 1
  28   16   17 1
  29   16   18 1
  30   16   19 1
  31   20   33 1
  32   20   51 1
  33   20   52 1
  34   21   22 1
  35   21   25 1
  36   22   23 1
  37   22   53 1
  38   22   54 1
  39   23   24 1
  40   24   25 ar
  41   24   26 ar
  42   25   29 ar
  43   26   27 ar
  44   26   55 1
  45   27   28 ar
  46   27   30 1
  47   28   29 ar
  48   28   31 1
  49   29   56 1
  50   30   32 1
  51   31   32 1
  52   31   34 1
  53   31   35 1
  54   32   57 1
  55   32   58 1
  56   33   34 am
  57   33   40 1
  58   34   41 2
  59   35   36 ar
  60   35   40 ar
  61   36   37 ar
  62   36   59 1
  63   37   38 ar
  64   37   60 1
  65   38   39 ar
  66   38   61 1
  67   39   40 ar
  68   39   62 1

#	End of record

