#	Name: ASD03090290
#	Creating user name:	WinNT
#	Creation time:	15. 06. 2019 20:28

#	Modifying user name:	WinNT
#	Modification time:	15. 06. 2019 20:28

#	Program:	/corina/corina34_cracker 3.40 0067  02.08.2006

@<TRIPOS>MOLECULE
ASD03090290
  52   54    0    0    0
SMALL
NO_CHARGES


@<TRIPOS>ATOM
   1 N1            -0.0400     1.2579     0.5841 N.ar    
   2 C2             0.1222     0.3323    -0.3416 C.ar    
   3 C3             1.3257    -0.3315    -0.4770 C.ar    
   4 C4             2.3796    -0.0080     0.3863 C.ar    
   5 C5             2.1617     0.9799     1.3524 C.ar    
   6 C6             0.9268     1.5923     1.4168 C.ar    
   7 C7             3.6874    -0.6924     0.2800 C.2     
   8 N8             5.7529    -3.5281     0.0644 N.pl3   
   9 C9             4.9319    -4.6582    -0.0262 C.ar    
  10 C10            3.7074    -4.5771    -0.6760 C.ar    
  11 C11            2.8982    -5.6928    -0.7653 C.ar    
  12 C12            3.3082    -6.8939    -0.2059 C.ar    
  13 C13            4.5314    -6.9759     0.4434 C.ar    
  14 C14            5.3442    -5.8629     0.5287 C.ar    
  15 N15            3.8787    -1.9955     0.2322 N.2     
  16 C16            5.1833    -2.2555     0.1366 C.2     
  17 N17            5.8461    -1.1215     0.1217 N.2     
  18 N18            4.8959    -0.0912     0.2087 N.pl3   
  19 C19            5.1622     1.3493     0.2263 C.3     
  20 C20            5.0387     1.9082    -1.1926 C.3     
  21 C21            5.3126     3.3900    -1.1744 C.2     
  22 O22            2.5104    -7.9917    -0.2936 O.3     
  23 C23            1.2644    -7.8355    -0.9756 C.3     
  24 O24            5.5803     3.9444    -0.1295 O.2     
  25 N25            5.2601     4.0990    -2.3194 N.am    
  26 C26            5.5264     5.5395    -2.3018 C.3     
  27 C27            4.9368     3.4293    -3.5816 C.3     
  28 Cl28           1.5286    -1.5485    -1.6982 Cl      
  29 C29            4.9757    -8.2815     1.0508 C.3     
  30 F30            6.2316    -8.1160     1.6448 F       
  31 F31            4.0507    -8.6835     2.0203 F       
  32 F32            5.0575    -9.2569     0.0513 F       
  33 H33           -0.6972     0.0900    -1.0022 H       
  34 H34            2.9482     1.2589     2.0380 H       
  35 H35            0.7493     2.3561     2.1594 H       
  36 H36            6.7175    -3.6291     0.0770 H       
  37 H37            3.3877    -3.6417    -1.1110 H       
  38 H38            1.9458    -5.6299    -1.2706 H       
  39 H39            6.2964    -5.9269     1.0342 H       
  40 H40            4.4403     1.8443     0.8759 H       
  41 H41            6.1702     1.5279     0.6007 H       
  42 H42            5.7605     1.4132    -1.8422 H       
  43 H43            4.0307     1.7296    -1.5670 H       
  44 H44            0.6657    -7.0780    -0.4697 H       
  45 H45            1.4495    -7.5251    -2.0040 H       
  46 H46            0.7276    -8.7841    -0.9735 H       
  47 H47            6.5912     5.7141    -2.4563 H       
  48 H48            4.9597     6.0235    -3.0972 H       
  49 H49            5.2265     5.9527    -1.3387 H       
  50 H50            3.9493     2.9736    -3.5086 H       
  51 H51            4.9414     4.1587    -4.3915 H       
  52 H52            5.6792     2.6572    -3.7838 H       
@<TRIPOS>BOND
   1    1    2 ar
   2    1    6 ar
   3    2    3 ar
   4    2   33 1
   5    3    4 ar
   6    3   28 1
   7    4    5 ar
   8    4    7 1
   9    5    6 ar
  10    5   34 1
  11    6   35 1
  12    7   15 2
  13    7   18 1
  14    8    9 1
  15    8   16 1
  16    8   36 1
  17    9   10 ar
  18    9   14 ar
  19   10   11 ar
  20   10   37 1
  21   11   12 ar
  22   11   38 1
  23   12   13 ar
  24   12   22 1
  25   13   14 ar
  26   13   29 1
  27   14   39 1
  28   15   16 1
  29   16   17 2
  30   17   18 1
  31   18   19 1
  32   19   20 1
  33   19   40 1
  34   19   41 1
  35   20   21 1
  36   20   42 1
  37   20   43 1
  38   21   24 2
  39   21   25 am
  40   22   23 1
  41   23   44 1
  42   23   45 1
  43   23   46 1
  44   25   26 1
  45   25   27 1
  46   26   47 1
  47   26   48 1
  48   26   49 1
  49   27   50 1
  50   27   51 1
  51   27   52 1
  52   29   30 1
  53   29   31 1
  54   29   32 1

#	End of record

