#	Name: ASD03330836
#	Creating user name:	WinNT
#	Creation time:	15. 06. 2019 20:38

#	Modifying user name:	WinNT
#	Modification time:	15. 06. 2019 20:38

#	Program:	/corina/corina34_cracker 3.40 0067  02.08.2006

@<TRIPOS>MOLECULE
ASD03330836
  59   61    0    0    0
SMALL
NO_CHARGES


@<TRIPOS>ATOM
   1 C1            -0.4988     1.8208    -0.6571 C.2     
   2 N2            -0.6204     0.4926    -0.9200 N.pl3   
   3 C3             0.8329     2.0898    -0.5624 C.2     
   4 N4             1.5029     0.9378    -0.7837 N.2     
   5 C5             0.6390    -0.0249    -1.0049 C.2     
   6 C6             0.9746    -1.4356    -1.2979 C.ar    
   7 C7             0.3467    -2.4721    -0.6075 C.ar    
   8 C8             1.4353     3.4028    -0.2712 C.2     
   9 O9             0.7231     4.3718    -0.0898 O.2     
  10 C10            3.3743     4.8351     0.0837 C.3     
  11 N11            2.7755     3.5298    -0.2058 N.am    
  12 N12            0.6453    -3.7281    -0.8680 N.ar    
  13 C13            1.5393    -4.0576    -1.7810 C.ar    
  14 C14            2.2063    -3.0900    -2.5086 C.ar    
  15 C15            1.9241    -1.7531    -2.2772 C.ar    
  16 C16           -1.8855    -0.2323    -1.0668 C.3     
  17 C17           -2.8133     0.5591    -1.9939 C.3     
  18 C18           -3.6171     1.5683    -1.1802 C.3     
  19 N19           -2.8336     2.0812    -0.0546 N.3     
  20 C20           -1.6369     2.7984    -0.5194 C.3     
  21 C21           -3.6554     2.9354     0.8131 C.3     
  22 C22            3.4273     5.0473     1.5980 C.3     
  23 C23            4.2288     3.9153     2.2438 C.3     
  24 C24            4.1009     6.3870     1.9020 C.3     
  25 C25            2.0052     5.0517     2.1624 C.3     
  26 C26            4.7713     4.8829    -0.4794 C.2     
  27 O27            5.3565     3.8526    -0.7379 O.2     
  28 N28            5.3703     6.0707    -0.6959 N.am    
  29 C29            6.6876     6.1210    -1.3350 C.3     
  30 Cl30           2.7373    -0.5041    -3.1673 Cl      
  31 H31           -0.3905    -2.2427     0.1476 H       
  32 H32            2.7716     5.6205    -0.3723 H       
  33 H33            3.3435     2.7570    -0.3505 H       
  34 H34            1.7536    -5.1005    -1.9624 H       
  35 H35            2.9361    -3.3729    -3.2528 H       
  36 H36           -1.6942    -1.2159    -1.4959 H       
  37 H37           -2.3562    -0.3451    -0.0901 H       
  38 H38           -2.2175     1.0865    -2.7388 H       
  39 H39           -3.4953    -0.1270    -2.4960 H       
  40 H40           -3.9044     2.3994    -1.8243 H       
  41 H41           -4.5167     1.0849    -0.7990 H       
  42 H42           -1.3700     3.5690     0.2039 H       
  43 H43           -1.8406     3.2592    -1.4860 H       
  44 H44           -4.4924     2.3572     1.2046 H       
  45 H45           -3.0490     3.3029     1.6408 H       
  46 H46           -4.0348     3.7798     0.2376 H       
  47 H47            5.2419     3.9121     1.8417 H       
  48 H48            4.2666     4.0665     3.3226 H       
  49 H49            3.7490     2.9609     2.0273 H       
  50 H50            3.5112     7.1962     1.4712 H       
  51 H51            4.1698     6.5224     2.9814 H       
  52 H52            5.1016     6.3968     1.4700 H       
  53 H53            1.5254     4.0973     1.9459 H       
  54 H54            2.0430     5.2029     3.2413 H       
  55 H55            1.4342     5.8582     1.7023 H       
  56 H56            4.9293     6.8922    -0.4285 H       
  57 H57            7.4068     5.5699    -0.7290 H       
  58 H58            6.6279     5.6717    -2.3263 H       
  59 H59            7.0082     7.1589    -1.4252 H       
@<TRIPOS>BOND
   1    1    2 1
   2    1    3 2
   3    1   20 1
   4    2   16 1
   5    2    5 1
   6    3    4 1
   7    3    8 1
   8    4    5 2
   9    5    6 1
  10    6    7 ar
  11    6   15 ar
  12    7   12 ar
  13    7   31 1
  14    8    9 2
  15    8   11 am
  16   10   11 1
  17   10   22 1
  18   10   26 1
  19   10   32 1
  20   11   33 1
  21   12   13 ar
  22   13   14 ar
  23   13   34 1
  24   14   15 ar
  25   14   35 1
  26   15   30 1
  27   16   17 1
  28   16   36 1
  29   16   37 1
  30   17   18 1
  31   17   38 1
  32   17   39 1
  33   18   19 1
  34   18   40 1
  35   18   41 1
  36   19   20 1
  37   19   21 1
  38   20   42 1
  39   20   43 1
  40   21   44 1
  41   21   45 1
  42   21   46 1
  43   22   23 1
  44   22   24 1
  45   22   25 1
  46   23   47 1
  47   23   48 1
  48   23   49 1
  49   24   50 1
  50   24   51 1
  51   24   52 1
  52   25   53 1
  53   25   54 1
  54   25   55 1
  55   26   27 2
  56   26   28 am
  57   28   29 1
  58   28   56 1
  59   29   57 1
  60   29   58 1
  61   29   59 1

#	End of record

