#	Name: ASD00170219
#	Creating user name:	WinNT
#	Creation time:	15. 06. 2019 18:31

#	Modifying user name:	WinNT
#	Modification time:	15. 06. 2019 18:31

#	Program:	/corina/corina34_cracker 3.40 0067  02.08.2006

@<TRIPOS>MOLECULE
ASD00170219
  36   38    0    0    0
SMALL
NO_CHARGES


@<TRIPOS>ATOM
   1 C1            -0.0331     1.3434    -0.0680 C.2     
   2 C2            -0.0068     0.0056    -0.0879 C.2     
   3 C3            -1.3325    -0.5854     0.0178 C.2     
   4 C4            -2.3265     0.3569     0.1155 C.2     
   5 S5            -1.6781     1.9321     0.0884 S.3     
   6 C6             1.2385    -0.7887    -0.2057 C.ar    
   7 C7             2.1929    -0.7485     0.8100 C.ar    
   8 C8             3.3509    -1.4905     0.6947 C.ar    
   9 C9             3.5655    -2.2728    -0.4257 C.ar    
  10 C10            2.6221    -2.3168    -1.4368 C.ar    
  11 C11            1.4580    -1.5839    -1.3302 C.ar    
  12 N12           -3.6708     0.0666     0.2269 N.pl3   
  13 C13           -1.5718    -1.9831     0.0198 C.2     
  14 C14           -1.5775    -2.7309     1.2965 C.ar    
  15 O15           -1.7726    -2.5680    -1.0294 O.2     
  16 Cl16           1.3711     2.3586    -0.1749 Cl      
  17 C17           -1.9195    -4.0838     1.3147 C.ar    
  18 C18           -1.9225    -4.7754     2.5084 C.ar    
  19 C19           -1.5878    -4.1305     3.6859 C.ar    
  20 C20           -1.2478    -2.7893     3.6747 C.ar    
  21 C21           -1.2354    -2.0877     2.4869 C.ar    
  22 C22            4.3837    -1.4478     1.7912 C.3     
  23 F23            4.1115    -2.4511     2.7275 F       
  24 F24            5.6544    -1.6537     1.2433 F       
  25 F25            4.3441    -0.1992     2.4209 F       
  26 H26            2.0266    -0.1377     1.6850 H       
  27 H27            4.4734    -2.8515    -0.5116 H       
  28 H28            2.7952    -2.9294    -2.3092 H       
  29 H29            0.7223    -1.6189    -2.1201 H       
  30 H30           -3.9756    -0.8520     0.1623 H       
  31 H31           -4.3111     0.7811     0.3697 H       
  32 H32           -2.1816    -4.5882     0.3964 H       
  33 H33           -2.1869    -5.8224     2.5239 H       
  34 H34           -1.5923    -4.6762     4.6179 H       
  35 H35           -0.9880    -2.2916     4.5972 H       
  36 H36           -0.9695    -1.0409     2.4794 H       
@<TRIPOS>BOND
   1    1    2 2
   2    1   16 1
   3    1    5 1
   4    2    3 1
   5    2    6 1
   6    3    4 2
   7    3   13 1
   8    4    5 1
   9    4   12 1
  10    6    7 ar
  11    6   11 ar
  12    7    8 ar
  13    7   26 1
  14    8    9 ar
  15    8   22 1
  16    9   10 ar
  17    9   27 1
  18   10   11 ar
  19   10   28 1
  20   11   29 1
  21   12   30 1
  22   12   31 1
  23   13   14 1
  24   13   15 2
  25   14   17 ar
  26   14   21 ar
  27   17   18 ar
  28   17   32 1
  29   18   19 ar
  30   18   33 1
  31   19   20 ar
  32   19   34 1
  33   20   21 ar
  34   20   35 1
  35   21   36 1
  36   22   23 1
  37   22   24 1
  38   22   25 1

#	End of record

