#	Name: ASD03731687
#	Creating user name:	WinNT
#	Creation time:	15. 06. 2019 20:46

#	Modifying user name:	WinNT
#	Modification time:	15. 06. 2019 20:46

#	Program:	/corina/corina34_cracker 3.40 0067  02.08.2006

@<TRIPOS>MOLECULE
ASD03731687
  39   40    0    0    0
SMALL
NO_CHARGES


@<TRIPOS>ATOM
   1 C1            -0.4028     1.1043    -1.9604 C.2     
   2 C2            -0.2815    -0.2737    -1.4501 C.ar    
   3 C3             0.9022    -0.9942    -1.6484 C.ar    
   4 C4             1.0108    -2.2841    -1.1688 C.ar    
   5 C5            -0.0517    -2.8664    -0.4908 C.ar    
   6 C6            -1.2311    -2.1531    -0.2919 C.ar    
   7 C7            -1.3464    -0.8628    -0.7617 C.ar    
   8 O8             0.5263     1.6166    -2.5546 O.2     
   9 N9            -1.5454     1.7941    -1.7732 N.am    
  10 S10           -1.6816     3.3418    -2.3463 S.o2    
  11 O11           -2.9837     3.7492    -1.9493 O.2     
  12 O12           -0.5247     4.0019    -1.8513 O.2     
  13 C13           -1.5916     3.1663    -4.1496 C.3     
  14 F14           -2.2620    -2.7253     0.3678 F       
  15 F15            1.9363    -0.4283    -2.3084 F       
  16 O16            0.0593    -4.1350    -0.0209 O.3     
  17 C17            1.2617    -4.7566    -0.1402 C.ar    
  18 C18            2.2133    -4.6278     0.8617 C.ar    
  19 C19            3.4345    -5.2610     0.7381 C.ar    
  20 C20            3.7094    -6.0229    -0.3829 C.ar    
  21 C21            2.7632    -6.1529    -1.3824 C.ar    
  22 C22            1.5380    -5.5258    -1.2613 C.ar    
  23 C23            4.4685    -5.1212     1.8254 C.3     
  24 C24            4.2814    -6.2384     2.8538 C.3     
  25 H25            1.9234    -2.8411    -1.3215 H       
  26 H26           -2.2597    -0.3089    -0.6022 H       
  27 H27           -2.2880     1.3841    -1.3028 H       
  28 H28           -2.4080     2.5315    -4.4940 H       
  29 H29           -1.6740     4.1486    -4.6148 H       
  30 H30           -0.6388     2.7133    -4.4235 H       
  31 H31            1.9993    -4.0326     1.7371 H       
  32 H32            4.6650    -6.5170    -0.4778 H       
  33 H33            2.9803    -6.7484    -2.2568 H       
  34 H34            0.7975    -5.6312    -2.0404 H       
  35 H35            5.4653    -5.1913     1.3900 H       
  36 H36            4.3529    -4.1540     2.3145 H       
  37 H37            3.2846    -6.1683     3.2892 H       
  38 H38            4.3971    -7.2056     2.3647 H       
  39 H39            5.0293    -6.1373     3.6403 H       
@<TRIPOS>BOND
   1    1    2 1
   2    1    8 2
   3    1    9 am
   4    2    3 ar
   5    2    7 ar
   6    3    4 ar
   7    3   15 1
   8    4    5 ar
   9    4   25 1
  10    5    6 ar
  11    5   16 1
  12    6    7 ar
  13    6   14 1
  14    7   26 1
  15    9   10 am
  16    9   27 1
  17   10   11 2
  18   10   12 2
  19   10   13 1
  20   13   28 1
  21   13   29 1
  22   13   30 1
  23   16   17 1
  24   17   18 ar
  25   17   22 ar
  26   18   19 ar
  27   18   31 1
  28   19   20 ar
  29   19   23 1
  30   20   21 ar
  31   20   32 1
  32   21   22 ar
  33   21   33 1
  34   22   34 1
  35   23   24 1
  36   23   35 1
  37   23   36 1
  38   24   37 1
  39   24   38 1
  40   24   39 1

#	End of record

