#	Name: ASD01883800
#	Creating user name:	WinNT
#	Creation time:	15. 06. 2019 19:47

#	Modifying user name:	WinNT
#	Modification time:	15. 06. 2019 19:47

#	Program:	/corina/corina34_cracker 3.40 0067  02.08.2006

@<TRIPOS>MOLECULE
ASD01883800
  46   48    0    0    0
SMALL
NO_CHARGES


@<TRIPOS>ATOM
   1 N1             0.0880     1.4229     0.6933 N.ar    
   2 C2             0.0633     0.1055     0.6222 C.ar    
   3 C3             1.2293    -0.6179     0.4813 C.ar    
   4 C4             2.4472     0.0650     0.4140 C.ar    
   5 C5             2.4271     1.4601     0.4933 C.ar    
   6 C6             1.2155     2.1052     0.6338 C.ar    
   7 C7             3.7264    -0.6714     0.2631 C.2     
   8 C8             3.8629    -2.0596     0.0748 C.2     
   9 C9             5.1904    -2.3374    -0.0187 C.2     
  10 N10            5.8676    -1.1655     0.1062 N.pl3   
  11 N11            4.9302    -0.1390     0.2764 N.2     
  12 C12            1.1797     3.6093     0.7205 C.3     
  13 C13            7.3231    -1.0040     0.0657 C.3     
  14 C14            7.7823    -0.8814    -1.3886 C.3     
  15 O15            9.2021    -0.7239    -1.4281 O.3     
  16 N16            5.7549    -3.5963    -0.2080 N.pl3   
  17 C17            6.1847    -4.3418     0.8926 C.ar    
  18 C18            6.6544    -5.6371     0.7152 C.ar    
  19 C19            7.0793    -6.3724     1.8046 C.ar    
  20 C20            7.0376    -5.8214     3.0718 C.ar    
  21 C21            6.5700    -4.5300     3.2535 C.ar    
  22 C22            6.1486    -3.7871     2.1657 C.ar    
  23 C23            7.5012    -6.6272     4.2579 C.3     
  24 F24            7.9242    -7.8894     3.8275 F       
  25 F25            8.5644    -5.9672     4.8832 F       
  26 F26            6.4453    -6.7732     5.1639 F       
  27 F27            6.5300    -3.9945     4.4931 F       
  28 C28            5.8981    -4.1389    -1.5612 C.3     
  29 H29           -0.8824    -0.4132     0.6754 H       
  30 H30            1.2017    -1.6960     0.4241 H       
  31 H31            3.3464     2.0249     0.4456 H       
  32 H32            3.0570    -2.7761     0.0158 H       
  33 H33            1.2594     3.9151     1.7637 H       
  34 H34            2.0134     4.0257     0.1551 H       
  35 H35            0.2405     3.9749     0.3054 H       
  36 H36            7.6041    -0.1040     0.6126 H       
  37 H37            7.7978    -1.8712     0.5248 H       
  38 H38            7.5013    -1.7815    -1.9355 H       
  39 H39            7.3076    -0.0142    -1.8477 H       
  40 H40            9.5638    -0.6399    -2.3210 H       
  41 H41            6.6870    -6.0692    -0.2740 H       
  42 H42            7.4444    -7.3793     1.6663 H       
  43 H43            5.7840    -2.7804     2.3069 H       
  44 H44            6.9002    -3.9263    -1.9338 H       
  45 H45            5.7400    -5.2172    -1.5389 H       
  46 H46            5.1608    -3.6770    -2.2178 H       
@<TRIPOS>BOND
   1    1    2 ar
   2    1    6 ar
   3    2    3 ar
   4    2   29 1
   5    3    4 ar
   6    3   30 1
   7    4    5 ar
   8    4    7 1
   9    5    6 ar
  10    5   31 1
  11    6   12 1
  12    7    8 1
  13    7   11 2
  14    8    9 2
  15    8   32 1
  16    9   10 1
  17    9   16 1
  18   10   11 1
  19   10   13 1
  20   12   33 1
  21   12   34 1
  22   12   35 1
  23   13   14 1
  24   13   36 1
  25   13   37 1
  26   14   15 1
  27   14   38 1
  28   14   39 1
  29   15   40 1
  30   16   17 1
  31   16   28 1
  32   17   18 ar
  33   17   22 ar
  34   18   19 ar
  35   18   41 1
  36   19   20 ar
  37   19   42 1
  38   20   21 ar
  39   20   23 1
  40   21   22 ar
  41   21   27 1
  42   22   43 1
  43   23   24 1
  44   23   25 1
  45   23   26 1
  46   28   44 1
  47   28   45 1
  48   28   46 1

#	End of record

