#	Name: ASD01911171
#	Creating user name:	WinNT
#	Creation time:	15. 06. 2019 19:57

#	Modifying user name:	WinNT
#	Modification time:	15. 06. 2019 19:57

#	Program:	/corina/corina34_cracker 3.40 0067  02.08.2006

@<TRIPOS>MOLECULE
ASD01911171
  49   52    0    0    0
SMALL
NO_CHARGES


@<TRIPOS>ATOM
   1 C1             0.1910     0.8531    -0.4574 C.ar    
   2 C2             0.3038    -0.5219    -0.5914 C.ar    
   3 C3             1.5482    -1.1225    -0.6308 C.ar    
   4 C4             2.7006    -0.3580    -0.5372 C.ar    
   5 C5             2.6033     1.0177    -0.4033 C.ar    
   6 C6             1.3344     1.6301    -0.3627 C.ar    
   7 C7             3.5860     2.1149    -0.2792 C.2     
   8 N8             2.9187     3.2783    -0.1750 N.am    
   9 C9             1.5890     3.0787    -0.2157 C.2     
  10 C10            3.5562     4.5899    -0.0353 C.3     
  11 C11            3.9352     5.1119    -1.3973 C.ar    
  12 C12            2.9797     5.7246    -2.1971 C.ar    
  13 C13            3.3324     6.2044    -3.4516 C.ar    
  14 C14            4.6327     6.0708    -3.9002 C.ar    
  15 C15            5.5825     5.4594    -3.1000 C.ar    
  16 C16            5.2348     4.9862    -1.8486 C.ar    
  17 N17            1.6639     5.8578    -1.7401 N.am    
  18 C18            1.3609     6.7985    -0.8236 C.2     
  19 C19           -0.0302     6.8695    -0.2483 C.3     
  20 O20            0.7398     3.9440    -0.1442 O.2     
  21 O21            4.7938     1.9873    -0.2724 O.2     
  22 O22            2.2077     7.5878    -0.4619 O.2     
  23 C23           -0.1097     8.0236     0.7530 C.3     
  24 C24           -1.5220     8.0956     1.3370 C.3     
  25 C25           -2.5291     8.3288     0.2091 C.3     
  26 C26           -2.4496     7.1747    -0.7923 C.3     
  27 C27           -1.0373     7.1026    -1.3763 C.3     
  28 Cl28           5.0752     6.6696    -5.4685 Cl      
  29 H29           -0.7838     1.3173    -0.4314 H       
  30 H30           -0.5869    -1.1283    -0.6653 H       
  31 H31            1.6230    -2.1949    -0.7348 H       
  32 H32            3.6702    -0.8326    -0.5682 H       
  33 H33            2.8613     5.2829     0.4390 H       
  34 H34            4.4513     4.4952     0.5795 H       
  35 H35            2.5913     6.6811    -4.0761 H       
  36 H36            6.5981     5.3556    -3.4524 H       
  37 H37            5.9781     4.5100    -1.2264 H       
  38 H38            0.9699     5.2733    -2.0828 H       
  39 H39           -0.2622     5.9325     0.2580 H       
  40 H40            0.6078     7.8575     1.5566 H       
  41 H41            0.1223     8.9605     0.2466 H       
  42 H42           -1.7540     7.1587     1.8434 H       
  43 H43           -1.5787     8.9178     2.0504 H       
  44 H44           -3.5352     8.3801     0.6251 H       
  45 H45           -2.2971     9.2657    -0.2973 H       
  46 H46           -2.6816     6.2377    -0.2859 H       
  47 H47           -3.1670     7.3408    -1.5959 H       
  48 H48           -0.8052     8.0396    -1.8826 H       
  49 H49           -0.9806     6.2804    -2.0897 H       
@<TRIPOS>BOND
   1    1    2 ar
   2    1    6 ar
   3    1   29 1
   4    2    3 ar
   5    2   30 1
   6    3    4 ar
   7    3   31 1
   8    4    5 ar
   9    4   32 1
  10    5    6 ar
  11    5    7 1
  12    6    9 1
  13    7    8 am
  14    7   21 2
  15    8    9 am
  16    8   10 1
  17    9   20 2
  18   10   11 1
  19   10   33 1
  20   10   34 1
  21   11   12 ar
  22   11   16 ar
  23   12   13 ar
  24   12   17 1
  25   13   14 ar
  26   13   35 1
  27   14   15 ar
  28   14   28 1
  29   15   16 ar
  30   15   36 1
  31   16   37 1
  32   17   18 am
  33   17   38 1
  34   18   19 1
  35   18   22 2
  36   19   23 1
  37   19   27 1
  38   19   39 1
  39   23   24 1
  40   23   40 1
  41   23   41 1
  42   24   25 1
  43   24   42 1
  44   24   43 1
  45   25   26 1
  46   25   44 1
  47   25   45 1
  48   26   27 1
  49   26   46 1
  50   26   47 1
  51   27   48 1
  52   27   49 1

#	End of record

