#	Name: ASD00990124
#	Creating user name:	WinNT
#	Creation time:	15. 06. 2019 18:54

#	Modifying user name:	WinNT
#	Modification time:	15. 06. 2019 18:54

#	Program:	/corina/corina34_cracker 3.40 0067  02.08.2006

@<TRIPOS>MOLECULE
ASD00990124
  62   64    0    0    0
SMALL
NO_CHARGES


@<TRIPOS>ATOM
   1 O1            -0.0161     1.3381     0.0094 O.3     
   2 C2             0.0021    -0.0041     0.0020 C.2     
   3 O3             1.0565    -0.5939    -0.0112 O.2     
   4 C4            -1.2926    -0.7753     0.0102 C.3     
   5 F5            -1.0184    -2.1471     0.0003 F       
   6 F6            -2.0198    -0.4534     1.1613 F       
   7 F7            -2.0416    -0.4412    -1.1232 F       
   8 H8             0.8394     1.7888     0.0037 H       
   9 C9             8.0326    13.4112     8.0126 C.3     
  10 C10            8.0534    11.8814     8.0042 C.3     
  11 C11            6.6349    11.3153     7.9123 C.3     
  12 S12            9.1146    11.2397     6.6400 S.3     
  13 C13           10.6575    11.3843     7.6259 C.3     
  14 H14           11.0709    12.3918     7.5788 H       
  15 C15           11.6696    10.3409     7.1527 C.3     
  16 C16           12.8325    10.3324     8.1535 C.3     
  17 C17           12.3427     9.8154     9.5041 C.3     
  18 C18           12.1775     8.2825     9.4302 C.3     
  19 C19           12.6931     7.8096    10.8149 C.3     
  20 C20           13.8415     8.8149    11.0792 C.3     
  21 N21           13.3553    10.0951    10.5337 N.am    
  22 C22           13.7703    11.3194    10.9149 C.2     
  23 O23           13.2991    12.3086    10.3948 O.2     
  24 C24           14.8197    11.4593    11.9874 C.3     
  25 H25           15.5926    10.7031    11.8504 H       
  26 C26           14.1720    11.3020    13.3792 C.3     
  27 C27           14.9280    12.3506    14.2370 C.3     
  28 C28           15.1459    13.4932    13.2140 C.3     
  29 N29           15.4190    12.8052    11.9303 N.3     
  30 C30           11.0362    10.4390     9.8963 C.2     
  31 O31           10.7061    10.4241    11.0633 O.2     
  32 N32           10.2079    11.0420     8.9946 N.am    
  33 C33            8.7937    11.3284     9.2429 C.3     
  34 H34            8.7210    12.0589    10.0486 H       
  35 C35            8.1136    10.0585     9.6856 C.2     
  36 N36            6.9839    10.1191    10.4180 N.am    
  37 O37            8.5830     8.9820     9.3827 O.2     
  38 H38            9.0552    13.7885     8.0049 H       
  39 H39            7.5055    13.7723     7.1296 H       
  40 H40            7.5224    13.7627     8.9094 H       
  41 H41            6.1591    11.6739     6.9996 H       
  42 H42            6.6787    10.2263     7.8955 H       
  43 H43            6.0565    11.6424     8.7763 H       
  44 H44           11.2003     9.3575     7.1232 H       
  45 H45           12.0372    10.6056     6.1613 H       
  46 H46           13.6259     9.6835     7.7825 H       
  47 H47           13.2178    11.3453     8.2707 H       
  48 H48           11.1296     8.0137     9.2966 H       
  49 H49           12.7884     7.8671     8.6288 H       
  50 H50           11.9146     7.8978    11.5727 H       
  51 H51           13.0718     6.7888    10.7630 H       
  52 H52           14.0281     8.9050    12.1493 H       
  53 H53           14.7473     8.5011    10.5604 H       
  54 H54           13.1077    11.5333    13.3374 H       
  55 H55           14.3340    10.2968    13.7683 H       
  56 H56           14.3146    12.6867    15.0730 H       
  57 H57           15.8807    11.9541    14.5883 H       
  58 H58           14.2487    14.1069    13.1337 H       
  59 H59           16.0002    14.1047    13.5043 H       
  60 H60           16.4102    12.7523    11.7495 H       
  61 H61            6.6085    10.9801    10.6602 H       
  62 H62            6.5462     9.3017    10.7029 H       
@<TRIPOS>BOND
   1    1    2 1
   2    1    8 1
   3    2    3 2
   4    2    4 1
   5    4    5 1
   6    4    6 1
   7    4    7 1
   8    9   10 1
   9    9   38 1
  10    9   39 1
  11    9   40 1
  12   10   33 1
  13   10   11 1
  14   10   12 1
  15   11   41 1
  16   11   42 1
  17   11   43 1
  18   12   13 1
  19   13   14 1
  20   13   32 1
  21   13   15 1
  22   15   16 1
  23   15   44 1
  24   15   45 1
  25   16   17 1
  26   16   46 1
  27   16   47 1
  28   17   21 1
  29   17   18 1
  30   17   30 1
  31   18   19 1
  32   18   48 1
  33   18   49 1
  34   19   20 1
  35   19   50 1
  36   19   51 1
  37   20   21 1
  38   20   52 1
  39   20   53 1
  40   21   22 am
  41   22   23 2
  42   22   24 1
  43   24   25 1
  44   24   29 1
  45   24   26 1
  46   26   27 1
  47   26   54 1
  48   26   55 1
  49   27   28 1
  50   27   56 1
  51   27   57 1
  52   28   29 1
  53   28   58 1
  54   28   59 1
  55   29   60 1
  56   30   31 2
  57   30   32 am
  58   32   33 1
  59   33   34 1
  60   33   35 1
  61   35   36 am
  62   35   37 2
  63   36   61 1
  64   36   62 1

#	End of record

