#	Name: ASD03731665
#	Creating user name:	WinNT
#	Creation time:	15. 06. 2019 20:46

#	Modifying user name:	WinNT
#	Modification time:	15. 06. 2019 20:46

#	Program:	/corina/corina34_cracker 3.40 0067  02.08.2006

@<TRIPOS>MOLECULE
ASD03731665
  40   42    0    0    0
SMALL
NO_CHARGES


@<TRIPOS>ATOM
   1 C1            -0.1367     1.4672     0.0334 C.2     
   2 C2            -0.0855    -0.0063     0.0192 C.ar    
   3 C3             1.1398    -0.6647    -0.1384 C.ar    
   4 C4             1.1826    -2.0444    -0.1506 C.ar    
   5 C5             0.0128    -2.7784    -0.0072 C.ar    
   6 C6            -1.2081    -2.1272     0.1498 C.ar    
   7 C7            -1.2599    -0.7503     0.1689 C.ar    
   8 O8             0.8864     2.1124    -0.0919 O.2     
   9 N9            -1.3182     2.0990     0.1797 N.am    
  10 S10           -1.3758     3.7539     0.1957 S.o2    
  11 O11           -2.7509     4.0549     0.3895 O.2     
  12 O12           -0.4008     4.1292     1.1589 O.2     
  13 C13           -0.8461     4.2413    -1.4694 C.3     
  14 F14           -2.3431    -2.8467     0.2888 F       
  15 F15            2.2783     0.0489    -0.2788 F       
  16 O16            0.0593    -4.1349    -0.0206 O.3     
  17 C17           -0.1522    -4.7690    -1.2042 C.ar    
  18 C18           -0.0462    -6.1504    -1.2806 C.ar    
  19 C19           -0.2614    -6.7933    -2.4839 C.ar    
  20 C20           -0.5829    -6.0600    -3.6138 C.ar    
  21 C21           -0.6890    -4.6817    -3.5391 C.ar    
  22 C22           -0.4799    -4.0363    -2.3355 C.ar    
  23 F23           -0.7927    -6.6902    -4.7903 F       
  24 C24            0.3041    -6.9488    -0.0514 C.3     
  25 C25           -0.7048    -7.9975     0.4210 C.3     
  26 C26            0.6041    -8.4375    -0.2377 C.3     
  27 H27            2.1273    -2.5536    -0.2721 H       
  28 H28           -2.2068    -0.2465     0.2949 H       
  29 H29           -2.1348     1.5843     0.2757 H       
  30 H30           -1.5283     3.8175    -2.2063 H       
  31 H31           -0.8542     5.3283    -1.5497 H       
  32 H32            0.1625     3.8710    -1.6528 H       
  33 H33           -0.1786    -7.8685    -2.5438 H       
  34 H34           -0.9394    -4.1110    -4.4212 H       
  35 H35           -0.5675    -2.9615    -2.2764 H       
  36 H36            0.8680    -6.4131     0.7122 H       
  37 H37           -0.8044    -8.1521     1.4954 H       
  38 H38           -1.6219    -8.1100    -0.1572 H       
  39 H39            0.5482    -8.8394    -1.2493 H       
  40 H40            1.3658    -8.8814     0.4033 H       
@<TRIPOS>BOND
   1    1    2 1
   2    1    8 2
   3    1    9 am
   4    2    3 ar
   5    2    7 ar
   6    3    4 ar
   7    3   15 1
   8    4    5 ar
   9    4   27 1
  10    5    6 ar
  11    5   16 1
  12    6    7 ar
  13    6   14 1
  14    7   28 1
  15    9   10 am
  16    9   29 1
  17   10   11 2
  18   10   12 2
  19   10   13 1
  20   13   30 1
  21   13   31 1
  22   13   32 1
  23   16   17 1
  24   17   18 ar
  25   17   22 ar
  26   18   19 ar
  27   18   24 1
  28   19   20 ar
  29   19   33 1
  30   20   21 ar
  31   20   23 1
  32   21   22 ar
  33   21   34 1
  34   22   35 1
  35   24   25 1
  36   24   26 1
  37   24   36 1
  38   25   26 1
  39   25   37 1
  40   25   38 1
  41   26   39 1
  42   26   40 1

#	End of record

