#	Name: ASD01881304
#	Creating user name:	WinNT
#	Creation time:	15. 06. 2019 19:42

#	Modifying user name:	WinNT
#	Modification time:	15. 06. 2019 19:42

#	Program:	/corina/corina34_cracker 3.40 0067  02.08.2006

@<TRIPOS>MOLECULE
ASD01881304
  55   58    0    0    0
SMALL
NO_CHARGES


@<TRIPOS>ATOM
   1 C1             0.0165     1.3049    -0.6888 C.2     
   2 N2             0.0442    -0.0374    -0.7515 N.am    
   3 C3             1.4407    -0.4840    -0.6926 C.3     
   4 C4             2.2784     0.7658    -0.5847 C.ar    
   5 C5             3.6308     0.9864    -0.4968 C.ar    
   6 C6             4.1172     2.2865    -0.4070 C.ar    
   7 C7             3.2355     3.3614    -0.4057 C.ar    
   8 C8             1.8786     3.1459    -0.4936 C.ar    
   9 C9             1.3845     1.8413    -0.5845 C.ar    
  10 O10           -0.9938     1.9807    -0.7191 O.2     
  11 O11            5.4537     2.5059    -0.3201 O.3     
  12 C12            5.8834     3.8658    -0.2307 C.3     
  13 C13            8.1188     2.7473    -0.0487 C.ar    
  14 C14            7.3871     3.9126    -0.1425 C.ar    
  15 C15            8.0584     5.1349    -0.1550 C.ar    
  16 C16            9.4508     5.1248    -0.0714 C.ar    
  17 C17           10.1077     3.9160     0.0198 C.ar    
  18 N18            9.4359     2.7797     0.0286 N.ar    
  19 N19            7.3575     6.3335    -0.2488 N.3     
  20 C20            7.6757     7.0332    -1.5020 C.3     
  21 C21            6.8406     8.3132    -1.5917 C.3     
  22 O22            7.0932     9.1230    -0.4403 O.3     
  23 C23            6.7936     8.4728     0.7978 C.3     
  24 C24            7.6282     7.1944     0.9117 C.3     
  25 C25           -1.1270    -0.9108    -0.8598 C.3     
  26 C26           -1.4526    -1.1465    -2.3361 C.3     
  27 C27           -2.6757    -2.0586    -2.4493 C.3     
  28 C28           -3.0013    -2.2943    -3.9255 C.3     
  29 H29            1.5955    -1.1156     0.1822 H       
  30 H30            1.6979    -1.0303    -1.6001 H       
  31 H31            4.3160     0.1516    -0.4970 H       
  32 H32            3.6166     4.3695    -0.3352 H       
  33 H33            1.1968     3.9835    -0.4920 H       
  34 H34            5.5543     4.4098    -1.1161 H       
  35 H35            5.4528     4.3252     0.6590 H       
  36 H36            7.6071     1.7963    -0.0338 H       
  37 H37           10.0066     6.0508    -0.0784 H       
  38 H38           11.1856     3.8986     0.0845 H       
  39 H39            8.7354     7.2882    -1.5175 H       
  40 H40            7.4437     6.3871    -2.3486 H       
  41 H41            7.1146     8.8642    -2.4914 H       
  42 H42            5.7823     8.0554    -1.6303 H       
  43 H43            7.0336     9.1392     1.6263 H       
  44 H44            5.7339     8.2196     0.8287 H       
  45 H45            7.3615     6.6660     1.8270 H       
  46 H46            8.6871     7.4519     0.9348 H       
  47 H47           -0.9145    -1.8650    -0.3778 H       
  48 H48           -1.9789    -0.4384    -0.3708 H       
  49 H49           -1.6651    -0.1922    -2.8181 H       
  50 H50           -0.6006    -1.6188    -2.8251 H       
  51 H51           -2.4632    -3.0128    -1.9672 H       
  52 H52           -3.5277    -1.5863    -1.9602 H       
  53 H53           -3.8727    -2.9441    -4.0061 H       
  54 H54           -3.2138    -1.3401    -4.4076 H       
  55 H55           -2.1494    -2.7666    -4.4146 H       
@<TRIPOS>BOND
   1    1    2 am
   2    1    9 1
   3    1   10 2
   4    2    3 1
   5    2   25 1
   6    3    4 1
   7    3   29 1
   8    3   30 1
   9    4    5 ar
  10    4    9 ar
  11    5    6 ar
  12    5   31 1
  13    6    7 ar
  14    6   11 1
  15    7    8 ar
  16    7   32 1
  17    8    9 ar
  18    8   33 1
  19   11   12 1
  20   12   14 1
  21   12   34 1
  22   12   35 1
  23   13   14 ar
  24   13   18 ar
  25   13   36 1
  26   14   15 ar
  27   15   16 ar
  28   15   19 1
  29   16   17 ar
  30   16   37 1
  31   17   18 ar
  32   17   38 1
  33   19   20 1
  34   19   24 1
  35   20   21 1
  36   20   39 1
  37   20   40 1
  38   21   22 1
  39   21   41 1
  40   21   42 1
  41   22   23 1
  42   23   24 1
  43   23   43 1
  44   23   44 1
  45   24   45 1
  46   24   46 1
  47   25   26 1
  48   25   47 1
  49   25   48 1
  50   26   27 1
  51   26   49 1
  52   26   50 1
  53   27   28 1
  54   27   51 1
  55   27   52 1
  56   28   53 1
  57   28   54 1
  58   28   55 1

#	End of record

