#	Name: ASD04882492
#	Creating user name:	WinNT
#	Creation time:	15. 06. 2019 20:54

#	Modifying user name:	WinNT
#	Modification time:	15. 06. 2019 20:54

#	Program:	/corina/corina34_cracker 3.40 0067  02.08.2006

@<TRIPOS>MOLECULE
ASD04882492
  84   88    0    0    0
SMALL
NO_CHARGES


@<TRIPOS>ATOM
   1 C1            -0.1808     1.8943     0.2178 C.ar    
   2 C2            -0.3137     0.5030     0.2181 C.ar    
   3 C3            -1.5773    -0.0764     0.2331 C.ar    
   4 C4            -2.7023     0.7178     0.2483 C.ar    
   5 C5            -2.5766     2.1099     0.2485 C.ar    
   6 C6            -1.3072     2.6950     0.2383 C.ar    
   7 N7             0.8211    -0.3039     0.2028 N.3     
   8 C8             0.8679    -1.1694     1.3896 C.3     
   9 C9             0.8836    -1.1015    -1.0299 C.3     
  10 C10            2.1814    -1.9127    -1.0442 C.3     
  11 N11            2.2282    -2.7781     0.1426 N.3     
  12 C12            2.1657    -1.9805     1.3753 C.3     
  13 C13           -3.7819     2.9604     0.2648 C.2     
  14 O14           -3.6715     4.1714     0.2650 O.2     
  15 N15           -5.0053     2.3953     0.2794 N.am    
  16 N16            1.0932     2.4768     0.2027 N.am    
  17 C17            3.3665    -3.5875     0.1273 C.ar    
  18 C18            1.2763     3.7103     0.7141 C.2     
  19 C19            2.6225     4.2889     0.7687 C.2     
  20 O20            0.3242     4.3439     1.1306 O.2     
  21 C21            2.9469     5.5215     1.2590 C.2     
  22 C22            4.3364     5.6598     1.1160 C.2     
  23 C23            4.7935     4.5201     0.5519 C.2     
  24 O24            3.7585     3.6945     0.3488 O.3     
  25 C25            4.6305    -3.0111     0.1175 C.ar    
  26 C26            3.2372    -4.9704     0.1275 C.ar    
  27 C27            4.3649    -5.7678     0.1123 C.ar    
  28 C28            5.6214    -5.1909     0.0973 C.ar    
  29 C29            5.7537    -3.8141     0.1024 C.ar    
  30 C30            1.8682    -5.6001     0.1449 C.3     
  31 C31           -6.2022     3.2399     0.2955 C.3     
  32 C32           -7.4310     2.3714     0.2130 C.ar    
  33 C33           -7.4413     1.1293     0.8189 C.ar    
  34 C34           -8.5687     0.3325     0.7431 C.ar    
  35 C35           -9.6855     0.7783     0.0618 C.ar    
  36 C36           -9.6755     2.0213    -0.5436 C.ar    
  37 C37           -8.5501     2.8196    -0.4641 C.ar    
  38 C38           -6.2369     4.0506     1.5926 C.3     
  39 C39           -6.1700     4.1930    -0.9009 C.3     
  40 C40           -8.5796    -1.0223     1.4030 C.3     
  41 N41           -9.0655    -0.8909     2.7831 N.3     
  42 C42           -9.3152    -2.2093     3.3810 C.3     
  43 C43           -8.1256    -0.1118     3.6001 C.3     
  44 H44           -1.6770    -1.1518     0.2326 H       
  45 H45           -3.6826     0.2647     0.2596 H       
  46 H46           -1.2070     3.7703     0.2388 H       
  47 H47            0.8329    -0.5550     2.2893 H       
  48 H48            0.0149    -1.8478     1.3788 H       
  49 H49            0.0307    -1.7792    -1.0681 H       
  50 H50            0.8601    -0.4377    -1.8941 H       
  51 H51            2.2163    -2.5270    -1.9439 H       
  52 H52            3.0344    -1.2342    -1.0334 H       
  53 H53            3.0185    -1.3028     1.4136 H       
  54 H54            2.1892    -2.6443     2.2395 H       
  55 H55           -5.0934     1.4293     0.2792 H       
  56 H56            1.8435     1.9925    -0.1759 H       
  57 H57            2.2661     6.2492     1.6755 H       
  58 H58            4.9288     6.5160     1.4029 H       
  59 H59            5.8241     4.3083     0.3083 H       
  60 H60            4.7346    -1.9361     0.1214 H       
  61 H61            4.2652    -6.8432     0.1125 H       
  62 H62            6.5015    -5.8167     0.0862 H       
  63 H63            6.7366    -3.3667     0.0906 H       
  64 H64            1.5246    -5.7508    -0.8785 H       
  65 H65            1.9167    -6.5610     0.6571 H       
  66 H66            1.1731    -4.9439     0.6686 H       
  67 H67           -6.5686     0.7809     1.3513 H       
  68 H68          -10.5659     0.1556     0.0020 H       
  69 H69          -10.5481     2.3695    -1.0762 H       
  70 H70           -8.5423     3.7905    -0.9370 H       
  71 H71           -5.3481     4.6788     1.6523 H       
  72 H72           -7.1274     4.6790     1.6046 H       
  73 H73           -6.2598     3.3716     2.4450 H       
  74 H74           -6.1453     3.6154    -1.8250 H       
  75 H75           -7.0605     4.8214    -0.8889 H       
  76 H76           -5.2812     4.8211    -0.8412 H       
  77 H77           -9.2375    -1.6913     0.8483 H       
  78 H78           -7.5690    -1.4307     1.4109 H       
  79 H79           -8.3901    -2.7855     3.3896 H       
  80 H80           -9.6740    -2.0829     4.4025 H       
  81 H81          -10.0670    -2.7377     2.7946 H       
  82 H82           -8.0125     0.8846     3.1731 H       
  83 H83           -8.5096    -0.0299     4.6170 H       
  84 H84           -7.1574    -0.6121     3.6167 H       
@<TRIPOS>BOND
   1    1    2 ar
   2    1   16 1
   3    1    6 ar
   4    2    3 ar
   5    2    7 1
   6    3    4 ar
   7    3   44 1
   8    4    5 ar
   9    4   45 1
  10    5    6 ar
  11    5   13 1
  12    6   46 1
  13    7    8 1
  14    7    9 1
  15    8   12 1
  16    8   47 1
  17    8   48 1
  18    9   10 1
  19    9   49 1
  20    9   50 1
  21   10   11 1
  22   10   51 1
  23   10   52 1
  24   11   12 1
  25   11   17 1
  26   12   53 1
  27   12   54 1
  28   13   14 2
  29   13   15 am
  30   15   31 1
  31   15   55 1
  32   16   18 am
  33   16   56 1
  34   17   26 ar
  35   17   25 ar
  36   18   19 1
  37   18   20 2
  38   19   21 2
  39   19   24 1
  40   21   22 1
  41   21   57 1
  42   22   23 2
  43   22   58 1
  44   23   24 1
  45   23   59 1
  46   25   29 ar
  47   25   60 1
  48   26   27 ar
  49   26   30 1
  50   27   28 ar
  51   27   61 1
  52   28   29 ar
  53   28   62 1
  54   29   63 1
  55   30   64 1
  56   30   65 1
  57   30   66 1
  58   31   32 1
  59   31   38 1
  60   31   39 1
  61   32   33 ar
  62   32   37 ar
  63   33   34 ar
  64   33   67 1
  65   34   35 ar
  66   34   40 1
  67   35   36 ar
  68   35   68 1
  69   36   37 ar
  70   36   69 1
  71   37   70 1
  72   38   71 1
  73   38   72 1
  74   38   73 1
  75   39   74 1
  76   39   75 1
  77   39   76 1
  78   40   41 1
  79   40   77 1
  80   40   78 1
  81   41   42 1
  82   41   43 1
  83   42   79 1
  84   42   80 1
  85   42   81 1
  86   43   82 1
  87   43   83 1
  88   43   84 1

#	End of record

