#	Name: ASD04590313
#	Creating user name:	WinNT
#	Creation time:	15. 06. 2019 20:50

#	Modifying user name:	WinNT
#	Modification time:	15. 06. 2019 20:50

#	Program:	/corina/corina34_cracker 3.40 0067  02.08.2006

@<TRIPOS>MOLECULE
ASD04590313
  55   59    0    0    0
SMALL
NO_CHARGES


@<TRIPOS>ATOM
   1 C1             0.0224     1.3684     0.3820 C.ar    
   2 C2             0.0520    -0.0131     0.3789 C.ar    
   3 C3             1.2020    -0.6919    -0.0186 C.ar    
   4 C4             2.3387     0.0438    -0.4188 C.ar    
   5 C5             2.2873     1.4491    -0.4082 C.ar    
   6 C6             1.1298     2.0982    -0.0080 C.ar    
   7 N7             3.5643    -0.3096    -0.8448 N.2     
   8 C8             4.2742     0.7658    -1.0983 C.2     
   9 N9             3.5265     1.8823    -0.8431 N.pl3   
  10 C10            5.6687     0.7691    -1.5846 C.2     
  11 C11            6.4581    -0.3732    -1.8541 C.2     
  12 C12            7.6719     0.0544    -2.2796 C.2     
  13 N13            7.6579     1.4134    -2.2815 N.pl3   
  14 N14            6.3951     1.8377    -1.8494 N.2     
  15 N15            6.0565    -1.7105    -1.7067 N.am    
  16 C16            6.9139    -2.7079    -2.0008 C.2     
  17 C17            6.4920    -4.1130    -1.8458 C.ar    
  18 O18            8.0354    -2.4496    -2.3939 O.2     
  19 C19            5.4947    -6.1039    -2.7579 C.ar    
  20 C20            5.6990    -6.7544    -1.5545 C.ar    
  21 C21            6.2913    -6.0934    -0.4938 C.ar    
  22 C22            6.6896    -4.7769    -0.6302 C.ar    
  23 C23            5.8868    -4.7875    -2.9117 C.ar    
  24 F24            5.6859    -4.1538    -4.0879 F       
  25 F25            7.2684    -4.1332     0.4070 F       
  26 C26            1.2319    -2.1649    -0.0208 C.2     
  27 N27            0.7573    -2.8502     1.0382 N.am    
  28 C28            0.6648    -4.3177     1.0079 C.3     
  29 C29            0.3237    -2.1506     2.2572 C.3     
  30 C30            1.0164    -2.7969     3.4617 C.3     
  31 N31            0.7608    -4.2434     3.4515 N.3     
  32 C32            1.3433    -4.8743     2.2641 C.3     
  33 C33            1.2615    -4.8752     4.6796 C.3     
  34 O34            1.6849    -2.7625    -0.9783 O.2     
  35 H35           -0.8764     1.8831     0.6879 H       
  36 H36           -0.8209    -0.5697     0.6866 H       
  37 H37            1.0928     3.1776    -0.0012 H       
  38 H38            3.8117     2.8035    -0.9472 H       
  39 H39            8.5027    -0.5734    -2.5659 H       
  40 H40            8.3938     1.9896    -2.5411 H       
  41 H41            5.1620    -1.9165    -1.3931 H       
  42 H42            5.0318    -6.6276    -3.5812 H       
  43 H43            5.3898    -7.7829    -1.4410 H       
  44 H44            6.4468    -6.6087     0.4425 H       
  45 H45           -0.3828    -4.6184     0.9939 H       
  46 H46            1.1697    -4.6982     0.1200 H       
  47 H47            0.6033    -1.0989     2.1949 H       
  48 H48           -0.7572    -2.2393     2.3655 H       
  49 H49            2.0899    -2.6167     3.4038 H       
  50 H50            0.6238    -2.3647     4.3822 H       
  51 H51            1.1858    -5.9518     2.3105 H       
  52 H52            2.4122    -4.6638     2.2278 H       
  53 H53            0.7606    -4.4379     5.5434 H       
  54 H54            1.0593    -5.9457     4.6459 H       
  55 H55            2.3359    -4.7106     4.7609 H       
@<TRIPOS>BOND
   1    1    2 ar
   2    1    6 ar
   3    1   35 1
   4    2    3 ar
   5    2   36 1
   6    3    4 ar
   7    3   26 1
   8    4    5 ar
   9    4    7 1
  10    5    6 ar
  11    5    9 1
  12    6   37 1
  13    7    8 2
  14    8    9 1
  15    8   10 1
  16    9   38 1
  17   10   11 1
  18   10   14 2
  19   11   12 2
  20   11   15 1
  21   12   13 1
  22   12   39 1
  23   13   14 1
  24   13   40 1
  25   15   16 am
  26   15   41 1
  27   16   17 1
  28   16   18 2
  29   17   22 ar
  30   17   23 ar
  31   19   20 ar
  32   19   23 ar
  33   19   42 1
  34   20   21 ar
  35   20   43 1
  36   21   22 ar
  37   21   44 1
  38   22   25 1
  39   23   24 1
  40   26   27 am
  41   26   34 2
  42   27   28 1
  43   27   29 1
  44   28   32 1
  45   28   45 1
  46   28   46 1
  47   29   30 1
  48   29   47 1
  49   29   48 1
  50   30   31 1
  51   30   49 1
  52   30   50 1
  53   31   32 1
  54   31   33 1
  55   32   51 1
  56   32   52 1
  57   33   53 1
  58   33   54 1
  59   33   55 1

#	End of record

