#	Name: ASD01140495
#	Creating user name:	WinNT
#	Creation time:	15. 06. 2019 19:01

#	Modifying user name:	WinNT
#	Modification time:	15. 06. 2019 19:01

#	Program:	/corina/corina34_cracker 3.40 0067  02.08.2006

@<TRIPOS>MOLECULE
ASD01140495
  65   69    0    0    0
SMALL
NO_CHARGES


@<TRIPOS>ATOM
   1 O1             0.3337     0.7283     0.1804 O.3     
   2 O2             3.2386     7.4688     7.2544 O.2     
   3 N3             3.8460     6.0950     9.4018 N.pl3   
   4 N4             5.1234     6.5721     9.0874 N.2     
   5 N5             5.1168     7.6097    13.6728 N.1     
   6 C6             1.7744     5.5423     3.8125 C.3     
   7 C7             2.6544     5.0571     2.6759 C.3     
   8 C8             2.5013     5.1796     5.1358 C.3     
   9 C9             2.7183     3.5250     2.7727 C.3     
  10 C10            3.5996     2.9854     1.6453 C.3     
  11 C11            2.4509     3.6716     5.2837 C.3     
  12 C12            2.9936     3.3798     0.2960 C.3     
  13 C13            3.2618     3.0708     4.1230 C.3     
  14 C14            1.7477     5.9926     6.1832 C.3     
  15 C15            1.6294     7.0622     3.9446 C.3     
  16 C16            2.0477     5.4503     1.3282 C.3     
  17 C17            2.9221     4.9051     0.1972 C.3     
  18 C18            1.2272     7.2444     5.4336 C.3     
  19 C19            3.6716     1.4598     1.7417 C.3     
  20 C20            1.5831     2.7968     0.1834 C.3     
  21 C21            3.9575     5.6444     5.0702 C.3     
  22 C22            1.6513     1.2717     0.2839 C.3     
  23 C23            2.2620     0.8757     1.6295 C.3     
  24 C24            2.6780     6.4001     7.2966 C.2     
  25 C25            2.5193     0.7242    -0.8509 C.3     
  26 C26            2.9087     5.4738     8.4627 C.3     
  27 C27            3.6265     6.2977    10.7125 C.2     
  28 C28            4.7547     6.8997    11.2316 C.2     
  29 C29            5.6707     7.0576    10.1678 C.2     
  30 C30            4.9566     7.2956    12.5929 C.1     
  31 H31            0.7932     5.0705     3.7601 H       
  32 H32            3.6556     5.4749     2.7811 H       
  33 H33            1.7121     3.1223     2.6564 H       
  34 H34            4.6011     3.4069     1.7322 H       
  35 H35            2.8924     3.3774     6.2358 H       
  36 H36            1.4178     3.3282     5.2311 H       
  37 H37            3.6160     2.9915    -0.5101 H       
  38 H38            3.2135     1.9833     4.1795 H       
  39 H39            4.3013     3.3858     4.2134 H       
  40 H40            0.9125     5.4156     6.5801 H       
  41 H41            2.5770     7.5596     3.7373 H       
  42 H42            0.8452     7.4337     3.2849 H       
  43 H43            1.0444     5.0323     1.2456 H       
  44 H44            1.9959     6.5366     1.2561 H       
  45 H45            3.9257     5.3219     0.2809 H       
  46 H46            2.4908     5.1870    -0.7634 H       
  47 H47            0.1428     7.3099     5.5229 H       
  48 H48            1.6914     8.1433     5.8393 H       
  49 H49            4.2907     1.0733     0.9322 H       
  50 H50            4.1073     1.1763     2.6998 H       
  51 H51            0.9634     3.1867     0.9909 H       
  52 H52            1.1491     3.0786    -0.7759 H       
  53 H53            3.9881     6.7210     4.9024 H       
  54 H54            4.4568     5.4088     6.0100 H       
  55 H55            4.4651     5.1345     4.2514 H       
  56 H56            2.3123    -0.2109     1.7000 H       
  57 H57            1.6424     1.2639     2.4380 H       
  58 H58            3.5243     1.1388    -0.7721 H       
  59 H59            2.5679    -0.3623    -0.7793 H       
  60 H60            2.0841     1.0061    -1.8097 H       
  61 H61            3.3252     4.5330     8.1026 H       
  62 H62            1.9619     5.2823     8.9675 H       
  63 H63            0.3007    -0.2366     0.2361 H       
  64 H64            2.7319     6.0375    11.2587 H       
  65 H65            6.6549     7.4969    10.2380 H       
@<TRIPOS>BOND
   1    1   63 1
   2    1   22 1
   3    2   24 2
   4    3    4 1
   5    3   26 1
   6    3   27 1
   7    4   29 2
   8    5   30 3
   9    6    7 1
  10    6   15 1
  11    6   31 1
  12    6    8 1
  13    7    9 1
  14    7   16 1
  15    7   32 1
  16    8   11 1
  17    8   21 1
  18    8   14 1
  19    9   10 1
  20    9   13 1
  21    9   33 1
  22   10   12 1
  23   10   19 1
  24   10   34 1
  25   11   13 1
  26   11   35 1
  27   11   36 1
  28   12   17 1
  29   12   20 1
  30   12   37 1
  31   13   38 1
  32   13   39 1
  33   14   18 1
  34   14   24 1
  35   14   40 1
  36   15   18 1
  37   15   41 1
  38   15   42 1
  39   16   17 1
  40   16   43 1
  41   16   44 1
  42   17   45 1
  43   17   46 1
  44   18   47 1
  45   18   48 1
  46   19   23 1
  47   19   49 1
  48   19   50 1
  49   20   22 1
  50   20   51 1
  51   20   52 1
  52   21   53 1
  53   21   54 1
  54   21   55 1
  55   22   23 1
  56   22   25 1
  57   23   56 1
  58   23   57 1
  59   24   26 1
  60   25   58 1
  61   25   59 1
  62   25   60 1
  63   26   61 1
  64   26   62 1
  65   27   28 2
  66   27   64 1
  67   28   29 1
  68   28   30 1
  69   29   65 1

#	End of record

