#	Name: ASD02560355
#	Creating user name:	WinNT
#	Creation time:	15. 06. 2019 20:25

#	Modifying user name:	WinNT
#	Modification time:	15. 06. 2019 20:25

#	Program:	/corina/corina34_cracker 3.40 0067  02.08.2006

@<TRIPOS>MOLECULE
ASD02560355
  48   50    0    0    0
SMALL
NO_CHARGES


@<TRIPOS>ATOM
   1 C1            -0.6988    -3.7663     3.7996 C.2     
   2 C2            -1.4986    -4.4440     2.8621 C.2     
   3 C3            -2.2987    -3.7547     2.0241 C.2     
   4 N4            -2.3448    -2.3879     2.0729 N.pl3   
   5 C5            -1.5739    -1.6980     2.9800 C.2     
   6 C6            -0.7372    -2.4089     3.8648 C.2     
   7 C7            -3.0502    -1.4584     1.3583 C.2     
   8 C8            -2.7005    -0.2378     1.8369 C.2     
   9 N9            -1.8061    -0.4050     2.8177 N.2     
  10 C10           -3.2303     1.0846     1.3455 C.3     
  11 N11           -3.9611    -1.7179     0.3269 N.3     
  12 C12           -5.3379    -1.4423     0.7587 C.3     
  13 C13           -4.1042     1.7185     2.4297 C.3     
  14 C14           -6.2425    -1.3188    -0.4691 C.3     
  15 C15           -2.0594     2.0159     1.0251 C.3     
  16 C16           -5.8335    -2.5872     1.6443 C.3     
  17 C17           -7.2675    -2.3001     2.0941 C.3     
  18 C18           -8.1720    -2.1767     0.8663 C.3     
  19 C19           -7.6764    -1.0318    -0.0193 C.3     
  20 C20           -3.1492    -4.4956     1.0248 C.3     
  21 C21            0.1934    -4.5429     4.7335 C.3     
  22 H22           -1.4714    -5.5225     2.8128 H       
  23 H23           -0.1272    -1.8799     4.5820 H       
  24 H24           -3.8251     0.9261     0.4460 H       
  25 H25           -3.7295    -1.1903    -0.5014 H       
  26 H26           -5.3619    -0.5099     1.3229 H       
  27 H27           -3.5094     1.8770     3.3292 H       
  28 H28           -4.4874     2.6750     2.0743 H       
  29 H29           -4.9384     1.0550     2.6580 H       
  30 H30           -5.8894    -0.5032    -1.1000 H       
  31 H31           -6.2184    -2.2512    -1.0333 H       
  32 H32           -1.4368     1.5643     0.2527 H       
  33 H33           -2.4427     2.9724     0.6697 H       
  34 H34           -1.4646     2.1744     1.9246 H       
  35 H35           -5.8095    -3.5195     1.0801 H       
  36 H36           -5.1891    -2.6751     2.5190 H       
  37 H37           -7.6205    -3.1158     2.7250 H       
  38 H38           -7.2915    -1.3678     2.6583 H       
  39 H39           -8.1480    -3.1090     0.3021 H       
  40 H40           -9.1936    -1.9722     1.1867 H       
  41 H41           -7.7004    -0.0994     0.5449 H       
  42 H42           -8.3208    -0.9438    -0.8940 H       
  43 H43           -2.9146    -5.5593     1.0659 H       
  44 H44           -4.2024    -4.3464     1.2627 H       
  45 H45           -2.9458    -4.1171     0.0231 H       
  46 H46            1.1712    -4.6798     4.2717 H       
  47 H47            0.3067    -3.9937     5.6682 H       
  48 H48           -0.2524    -5.5167     4.9360 H       
@<TRIPOS>BOND
   1    1    2 1
   2    1   21 1
   3    1    6 2
   4    2    3 2
   5    2   22 1
   6    3    4 1
   7    3   20 1
   8    4    5 1
   9    4    7 1
  10    5    6 1
  11    5    9 2
  12    6   23 1
  13    7    8 2
  14    7   11 1
  15    8    9 1
  16    8   10 1
  17   10   13 1
  18   10   15 1
  19   10   24 1
  20   11   12 1
  21   11   25 1
  22   12   16 1
  23   12   14 1
  24   12   26 1
  25   13   27 1
  26   13   28 1
  27   13   29 1
  28   14   19 1
  29   14   30 1
  30   14   31 1
  31   15   32 1
  32   15   33 1
  33   15   34 1
  34   16   17 1
  35   16   35 1
  36   16   36 1
  37   17   18 1
  38   17   37 1
  39   17   38 1
  40   18   19 1
  41   18   39 1
  42   18   40 1
  43   19   41 1
  44   19   42 1
  45   20   43 1
  46   20   44 1
  47   20   45 1
  48   21   46 1
  49   21   47 1
  50   21   48 1

#	End of record

