#	Name: ASD03330454
#	Creating user name:	WinNT
#	Creation time:	15. 06. 2019 20:37

#	Modifying user name:	WinNT
#	Modification time:	15. 06. 2019 20:37

#	Program:	/corina/corina34_cracker 3.40 0067  02.08.2006

@<TRIPOS>MOLECULE
ASD03330454
  62   65    0    0    0
SMALL
NO_CHARGES


@<TRIPOS>ATOM
   1 C1            -0.6048     0.9488     0.4485 C.3     
   2 N2            -0.6813    -0.5078     0.2690 N.3     
   3 C3            -0.0909    -0.9180    -1.0179 C.3     
   4 C4             1.2681    -0.2771    -1.1314 C.2     
   5 N5             1.6837     0.7578    -0.3453 N.pl3   
   6 C6             0.8506     1.3670     0.6951 C.3     
   7 C7             2.2875    -0.5737    -1.9757 C.2     
   8 N8             3.3081     0.2700    -1.7010 N.2     
   9 C9             2.9518     1.0724    -0.7212 C.2     
  10 C10            3.7881     2.1357    -0.1298 C.ar    
  11 C11            2.2837    -1.6265    -3.0069 C.2     
  12 O12            1.3000    -2.3254    -3.1588 O.2     
  13 C13            3.3666    -2.8616    -4.8067 C.3     
  14 N14            3.3704    -1.8149    -3.7816 N.am    
  15 C15           -2.0671    -0.9807     0.3871 C.3     
  16 C16            4.4881     3.0427    -0.9640 C.ar    
  17 C17            2.7289    -2.3189    -6.0873 C.3     
  18 C18            3.4880    -1.0723    -6.5463 C.3     
  19 C19            2.7932    -3.3868    -7.1811 C.3     
  20 C20            1.2680    -1.9550    -5.8149 C.3     
  21 C21            4.7830    -3.2893    -5.0931 C.2     
  22 O22            5.7085    -2.5712    -4.7791 O.2     
  23 N23            5.0211    -4.4699    -5.6981 N.am    
  24 C24            6.3985    -4.9322    -5.8854 C.3     
  25 C25            5.2819     4.0517    -0.3671 C.ar    
  26 C26            5.3641     4.1383     1.0322 C.ar    
  27 C27            4.6818     3.2531     1.8124 C.ar    
  28 C28            3.8917     2.2602     1.2466 C.ar    
  29 N29            4.4087     2.9571    -2.2928 N.ar    
  30 C30            5.0545     3.7933    -3.0704 C.ar    
  31 C31            5.8527     4.8090    -2.5499 C.ar    
  32 C32            5.9768     4.9522    -1.1971 C.ar    
  33 H33           -0.9772     1.4444    -0.4480 H       
  34 H34           -1.2154     1.2411     1.3028 H       
  35 H35            0.0096    -2.0030    -1.0481 H       
  36 H36           -0.7259    -0.5832    -1.8381 H       
  37 H37            0.9349     2.4526     0.6451 H       
  38 H38            1.1726     1.0172     1.6760 H       
  39 H39            2.7936    -3.7175    -4.4500 H       
  40 H40            4.1549    -1.2575    -3.6605 H       
  41 H41           -2.6943    -0.4502    -0.3293 H       
  42 H42           -2.1048    -2.0503     0.1808 H       
  43 H43           -2.4304    -0.7924     1.3974 H       
  44 H44            4.5288    -1.3316    -6.7403 H       
  45 H45            3.0337    -0.6857    -7.4586 H       
  46 H46            3.4422    -0.3116    -5.7671 H       
  47 H47            2.2489    -4.2733    -6.8557 H       
  48 H48            2.3427    -2.9987    -8.0946 H       
  49 H49            3.8338    -3.6490    -7.3722 H       
  50 H50            1.2222    -1.1943    -5.0357 H       
  51 H51            0.8137    -1.5685    -6.7272 H       
  52 H52            0.7273    -2.8431    -5.4879 H       
  53 H53            4.2805    -5.0134    -6.0094 H       
  54 H54            6.3920    -5.8991    -6.3887 H       
  55 H55            6.9447    -4.2103    -6.4926 H       
  56 H56            6.8838    -5.0313    -4.9145 H       
  57 H57            5.9689     4.9068     1.4905 H       
  58 H58            4.7523     3.3280     2.8875 H       
  59 H59            3.3609     1.5709     1.8865 H       
  60 H60            4.9651     3.6913    -4.1419 H       
  61 H61            6.3731     5.4822    -3.2150 H       
  62 H62            6.5916     5.7339    -0.7759 H       
@<TRIPOS>BOND
   1    1    2 1
   2    1    6 1
   3    1   33 1
   4    1   34 1
   5    2    3 1
   6    2   15 1
   7    3    4 1
   8    3   35 1
   9    3   36 1
  10    4    5 1
  11    4    7 2
  12    5    6 1
  13    5    9 1
  14    6   37 1
  15    6   38 1
  16    7    8 1
  17    7   11 1
  18    8    9 2
  19    9   10 1
  20   10   16 ar
  21   10   28 ar
  22   11   12 2
  23   11   14 am
  24   13   14 1
  25   13   17 1
  26   13   21 1
  27   13   39 1
  28   14   40 1
  29   15   41 1
  30   15   42 1
  31   15   43 1
  32   16   25 ar
  33   16   29 ar
  34   17   18 1
  35   17   19 1
  36   17   20 1
  37   18   44 1
  38   18   45 1
  39   18   46 1
  40   19   47 1
  41   19   48 1
  42   19   49 1
  43   20   50 1
  44   20   51 1
  45   20   52 1
  46   21   22 2
  47   21   23 am
  48   23   24 1
  49   23   53 1
  50   24   54 1
  51   24   55 1
  52   24   56 1
  53   25   26 ar
  54   25   32 ar
  55   26   27 ar
  56   26   57 1
  57   27   28 ar
  58   27   58 1
  59   28   59 1
  60   29   30 ar
  61   30   31 ar
  62   30   60 1
  63   31   32 ar
  64   31   61 1
  65   32   62 1

#	End of record

