#	Name: ASD02038394
#	Creating user name:	WinNT
#	Creation time:	15. 06. 2019 20:16

#	Modifying user name:	WinNT
#	Modification time:	15. 06. 2019 20:16

#	Program:	/corina/corina34_cracker 3.40 0067  02.08.2006

@<TRIPOS>MOLECULE
ASD02038394
  47   50    0    0    0
SMALL
NO_CHARGES


@<TRIPOS>ATOM
   1 N1            -0.0178     1.4608     0.0101 N.am    
   2 C2             0.0021    -0.0041     0.0020 C.3     
   3 C3             0.0228    -0.5218     1.4416 C.3     
   4 O4            -1.1971    -0.1638     2.0941 O.3     
   5 C5            -1.3411    -0.5513     3.3895 C.ar    
   6 C6            -2.5004    -0.2381     4.0861 C.ar    
   7 C7            -2.6404    -0.6336     5.3973 C.ar    
   8 C8            -1.6343    -1.3451     6.0380 C.ar    
   9 C9            -0.4727    -1.6569     5.3342 C.ar    
  10 C10           -0.3324    -1.2663     4.0190 C.ar    
  11 C11            1.1481     2.1155     0.0025 C.2     
  12 C12            1.2388     3.6146     0.0473 C.3     
  13 N13           -0.0566     4.2068    -0.3119 N.3     
  14 C14           -1.1335     3.5908     0.4802 C.3     
  15 C15           -1.3098     2.1408     0.0201 C.3     
  16 C16           -0.0385     5.5942    -0.1393 C.ar    
  17 C17            0.9206     6.3627    -0.7861 C.ar    
  18 C18            0.9365     7.7347    -0.6137 C.ar    
  19 C19           -0.0044     8.3419     0.2048 C.ar    
  20 C20           -0.9601     7.5763     0.8494 C.ar    
  21 C21           -0.9828     6.2058     0.6745 C.ar    
  22 F22            0.0125     9.6822     0.3733 F       
  23 C23           -3.7482    -0.4569     6.4102 C.3     
  24 C24           -3.2260    -1.1474     7.6521 C.2     
  25 N25           -2.0078    -1.6297     7.3541 N.am    
  26 O26           -3.7997    -1.2468     8.7161 O.2     
  27 O27            2.1753     1.4723    -0.0421 O.2     
  28 F28            1.8688     8.4837    -1.2422 F       
  29 H29           -0.8878    -0.3767    -0.5053 H       
  30 H30            0.8920    -0.3525    -0.5222 H       
  31 H31            0.1271    -1.6067     1.4361 H       
  32 H32            0.8637    -0.0786     1.9750 H       
  33 H33           -3.2907     0.3150     3.6005 H       
  34 H34            0.3186    -2.2093     5.8190 H       
  35 H35            0.5702    -1.5113     3.4790 H       
  36 H36            1.5145     3.9305     1.0535 H       
  37 H37            1.9989     3.9523    -0.6572 H       
  38 H38           -0.8683     3.6129     1.5372 H       
  39 H39           -2.0625     4.1388     0.3226 H       
  40 H40           -1.7393     2.1289    -0.9817 H       
  41 H41           -1.9808     1.6230     0.7055 H       
  42 H42            1.6534     5.8893    -1.4227 H       
  43 H43           -1.6918     8.0510     1.4863 H       
  44 H44           -1.7291     5.6094     1.1781 H       
  45 H45           -3.9214     0.6013     6.6059 H       
  46 H46           -4.6632    -0.9367     6.0628 H       
  47 H47           -1.4518    -2.1191     7.9804 H       
@<TRIPOS>BOND
   1    1    2 1
   2    1   11 am
   3    1   15 1
   4    2    3 1
   5    2   29 1
   6    2   30 1
   7    3    4 1
   8    3   31 1
   9    3   32 1
  10    4    5 1
  11    5    6 ar
  12    5   10 ar
  13    6    7 ar
  14    6   33 1
  15    7    8 ar
  16    7   23 1
  17    8    9 ar
  18    8   25 1
  19    9   10 ar
  20    9   34 1
  21   10   35 1
  22   11   12 1
  23   11   27 2
  24   12   13 1
  25   12   36 1
  26   12   37 1
  27   13   14 1
  28   13   16 1
  29   14   15 1
  30   14   38 1
  31   14   39 1
  32   15   40 1
  33   15   41 1
  34   16   17 ar
  35   16   21 ar
  36   17   18 ar
  37   17   42 1
  38   18   19 ar
  39   18   28 1
  40   19   20 ar
  41   19   22 1
  42   20   21 ar
  43   20   43 1
  44   21   44 1
  45   23   24 1
  46   23   45 1
  47   23   46 1
  48   24   25 am
  49   24   26 2
  50   25   47 1

#	End of record

