#	Name: ASD01770002
#	Creating user name:	WinNT
#	Creation time:	15. 06. 2019 19:23

#	Modifying user name:	WinNT
#	Modification time:	15. 06. 2019 19:23

#	Program:	/corina/corina34_cracker 3.40 0067  02.08.2006

@<TRIPOS>MOLECULE
ASD01770002
  35   36    0    0    0
SMALL
NO_CHARGES


@<TRIPOS>ATOM
   1 C1            -0.0187     1.5258     0.0104 C.3     
   2 C2             0.0021    -0.0041     0.0020 C.3     
   3 O3             0.6932    -0.4777     1.1597 O.3     
   4 C4            -1.4341    -0.5342     0.0143 C.3     
   5 O5            -1.4167    -1.9618    -0.0471 O.3     
   6 C6            -2.1245    -0.0858     1.3060 C.3     
   7 O7            -3.4417    -0.6373     1.3603 O.3     
   8 C8            -1.3113    -0.5822     2.5055 C.3     
   9 O9            -1.2907    -2.0110     2.5101 O.3     
  10 C10            0.1201    -0.0502     2.3970 C.3     
  11 O11            0.8997    -0.5550     3.4829 O.3     
  12 C12            2.1360    -0.0181     3.6568 C.ar    
  13 C13            2.5894     0.9740     2.7999 C.ar    
  14 C14            3.8465     1.5186     2.9791 C.ar    
  15 C15            4.6525     1.0751     4.0110 C.ar    
  16 C16            4.2028     0.0861     4.8666 C.ar    
  17 C17            2.9447    -0.4574     4.6952 C.ar    
  18 N18            2.4617    -1.5116     5.6150 N.pl3   
  19 O19            3.1720    -1.8969     6.5264 O.2     
  20 O20            1.3539    -1.9939     5.4606 O.2     
  21 H21            1.0039     1.9031     0.0027 H       
  22 H22           -0.5459     1.8868    -0.8726 H       
  23 H23           -0.5289     1.8773     0.9072 H       
  24 H24            0.5119    -0.3558    -0.8949 H       
  25 H25           -1.9755    -0.1392    -0.8453 H       
  26 H26           -0.9889    -2.3162    -0.8386 H       
  27 H27           -2.1836     1.0024     1.3291 H       
  28 H28           -3.9377    -0.3937     2.1538 H       
  29 H29           -1.7660    -0.2215     3.4282 H       
  30 H30           -0.7919    -2.3948     3.2442 H       
  31 H31            0.1068     1.0391     2.4343 H       
  32 H32            1.9603     1.3203     1.9932 H       
  33 H33            4.1999     2.2911     2.3122 H       
  34 H34            5.6351     1.5015     4.1490 H       
  35 H35            4.8344    -0.2586     5.6721 H       
@<TRIPOS>BOND
   1    1    2 1
   2    1   21 1
   3    1   22 1
   4    1   23 1
   5    2    3 1
   6    2    4 1
   7    2   24 1
   8    3   10 1
   9    4    5 1
  10    4    6 1
  11    4   25 1
  12    5   26 1
  13    6    7 1
  14    6    8 1
  15    6   27 1
  16    7   28 1
  17    8    9 1
  18    8   10 1
  19    8   29 1
  20    9   30 1
  21   10   11 1
  22   10   31 1
  23   11   12 1
  24   12   13 ar
  25   12   17 ar
  26   13   14 ar
  27   13   32 1
  28   14   15 ar
  29   14   33 1
  30   15   16 ar
  31   15   34 1
  32   16   17 ar
  33   16   35 1
  34   17   18 1
  35   18   19 2
  36   18   20 2

#	End of record

