#	Name: ASD02198151
#	Creating user name:	WinNT
#	Creation time:	15. 06. 2019 20:18

#	Modifying user name:	WinNT
#	Modification time:	15. 06. 2019 20:18

#	Program:	/corina/corina34_cracker 3.40 0067  02.08.2006

@<TRIPOS>MOLECULE
ASD02198151
  42   45    0    0    0
SMALL
NO_CHARGES


@<TRIPOS>ATOM
   1 C1            -0.0156     1.3780    -0.0238 C.2     
   2 C2             0.0070    -0.0013    -0.0085 C.2     
   3 C3            -1.1793    -0.8005     0.0602 C.1     
   4 S4             1.5647     2.0117    -0.1107 S.3     
   5 C5             2.2782     0.4069    -0.1274 C.2     
   6 C6             1.2868    -0.5465    -0.0663 C.2     
   7 C7             3.6564     0.1362    -0.1941 C.2     
   8 C8             4.6288     1.2530    -0.2566 C.ar    
   9 O9             4.0515    -1.0172    -0.2006 O.2     
  10 N10            1.5371    -1.9090    -0.0630 N.pl3   
  11 N11           -1.1600     2.1397     0.0194 N.pl3   
  12 N12           -2.1204    -1.4345     0.1147 N.1     
  13 C13            5.9930     0.9782    -0.3226 C.ar    
  14 C14           -1.0703     3.5297     0.1320 C.ar    
  15 C15           -1.9763     4.3424    -0.5357 C.ar    
  16 C16           -0.0778     4.1026     0.9168 C.ar    
  17 C17            0.0058     5.4759     1.0246 C.ar    
  18 C18           -0.8957     6.2861     0.3537 C.ar    
  19 C19           -1.8884     5.7184    -0.4248 C.ar    
  20 C20            6.8899     2.0327    -0.3809 C.ar    
  21 C21            6.3914     3.3264    -0.3713 C.ar    
  22 C22            5.0224     3.5263    -0.3042 C.ar    
  23 N23            4.1924     2.5066    -0.2547 N.ar    
  24 C24           -1.0127     7.7949     0.3107 C.3     
  25 C25           -1.8957     8.0969    -0.9186 C.3     
  26 C26           -2.7362     6.8075    -1.0467 C.3     
  27 H27            2.4499    -2.2345    -0.1053 H       
  28 H28            0.7996    -2.5374    -0.0184 H       
  29 H29           -2.0293     1.7120    -0.0283 H       
  30 H30            6.3465    -0.0423    -0.3278 H       
  31 H31           -2.7515     3.8994    -1.1433 H       
  32 H32            0.6268     3.4747     1.4420 H       
  33 H33            0.7774     5.9211     1.6352 H       
  34 H34            7.9533     1.8511    -0.4324 H       
  35 H35            7.0641     4.1703    -0.4153 H       
  36 H36            4.6307     4.5327    -0.2965 H       
  37 H37           -1.4900     8.1632     1.2188 H       
  38 H38           -0.0284     8.2473     0.1897 H       
  39 H39           -2.5368     8.9586    -0.7328 H       
  40 H40           -1.2831     8.2527    -1.8067 H       
  41 H41           -2.9284     6.5840    -2.0960 H       
  42 H42           -3.6753     6.9128    -0.5034 H       
@<TRIPOS>BOND
   1    1    2 2
   2    1    4 1
   3    1   11 1
   4    2    3 1
   5    2    6 1
   6    3   12 3
   7    4    5 1
   8    5    6 2
   9    5    7 1
  10    6   10 1
  11    7    8 1
  12    7    9 2
  13    8   13 ar
  14    8   23 ar
  15   10   27 1
  16   10   28 1
  17   11   14 1
  18   11   29 1
  19   13   20 ar
  20   13   30 1
  21   14   15 ar
  22   14   16 ar
  23   15   19 ar
  24   15   31 1
  25   16   17 ar
  26   16   32 1
  27   17   18 ar
  28   17   33 1
  29   18   19 ar
  30   18   24 1
  31   19   26 1
  32   20   21 ar
  33   20   34 1
  34   21   22 ar
  35   21   35 1
  36   22   23 ar
  37   22   36 1
  38   24   25 1
  39   24   37 1
  40   24   38 1
  41   25   26 1
  42   25   39 1
  43   25   40 1
  44   26   41 1
  45   26   42 1

#	End of record

