#	Name: ASD03080143
#	Creating user name:	WinNT
#	Creation time:	15. 06. 2019 20:26

#	Modifying user name:	WinNT
#	Modification time:	15. 06. 2019 20:26

#	Program:	/corina/corina34_cracker 3.40 0067  02.08.2006

@<TRIPOS>MOLECULE
ASD03080143
  28   28    0    0    0
SMALL
NO_CHARGES


@<TRIPOS>ATOM
   1 C1             1.1225    -0.4421    -0.5936 C.ar    
   2 C2             0.0032    -0.0126     0.1074 C.ar    
   3 C3             0.0795     1.1218     0.9047 C.ar    
   4 C4             1.2676     1.8197     0.9986 C.ar    
   5 C5             2.3810     1.3899     0.2987 C.ar    
   6 C6             2.3080     0.2597    -0.4961 C.ar    
   7 C7            -1.1832    -2.0648    -0.0990 C.2     
   8 N8            -1.1996    -0.7216     0.0101 N.am    
   9 C9            -2.1799    -4.3314    -0.2331 C.3     
  10 C10           -2.4775    -2.8367    -0.0980 C.3     
  11 C11           -3.1964    -6.6098    -0.3671 C.3     
  12 C12           -3.4940    -5.1151    -0.2321 C.3     
  13 Br13           4.0057     2.3488     0.4287 Br      
  14 O14           -0.1267    -2.6523    -0.1980 O.2     
  15 Br15          -4.8849    -7.6169    -0.3658 Br      
  16 H16            1.0671    -1.3265    -1.2109 H       
  17 H17           -0.7895     1.4582     1.4507 H       
  18 H18            1.3274     2.7020     1.6185 H       
  19 H19            3.1787    -0.0739    -1.0410 H       
  20 H20           -2.0450    -0.2461     0.0212 H       
  21 H21           -1.6492    -4.5132    -1.1676 H       
  22 H22           -1.5626    -4.6561     0.6045 H       
  23 H23           -3.0082    -2.6549     0.8365 H       
  24 H24           -3.0948    -2.5120    -0.9356 H       
  25 H25           -2.6657    -6.7917    -1.3016 H       
  26 H26           -2.5791    -6.9345     0.4705 H       
  27 H27           -4.0247    -4.9333     0.7025 H       
  28 H28           -4.1113    -4.7904    -1.0697 H       
@<TRIPOS>BOND
   1    1    2 ar
   2    1    6 ar
   3    1   16 1
   4    2    3 ar
   5    2    8 1
   6    3    4 ar
   7    3   17 1
   8    4    5 ar
   9    4   18 1
  10    5    6 ar
  11    5   13 1
  12    6   19 1
  13    7    8 am
  14    7   14 2
  15    7   10 1
  16    8   20 1
  17    9   10 1
  18    9   12 1
  19    9   21 1
  20    9   22 1
  21   10   23 1
  22   10   24 1
  23   11   12 1
  24   11   15 1
  25   11   25 1
  26   11   26 1
  27   12   27 1
  28   12   28 1

#	End of record

