#	Name: ASD04590379
#	Creating user name:	WinNT
#	Creation time:	15. 06. 2019 20:50

#	Modifying user name:	WinNT
#	Modification time:	15. 06. 2019 20:50

#	Program:	/corina/corina34_cracker 3.40 0067  02.08.2006

@<TRIPOS>MOLECULE
ASD04590379
  42   46    0    0    0
SMALL
NO_CHARGES


@<TRIPOS>ATOM
   1 C1            -0.0168     1.3887     0.0097 C.ar    
   2 C2             0.0021    -0.0041     0.0020 C.ar    
   3 C3             2.4105     0.0373    -0.0223 C.ar    
   4 C4             2.3780     1.4414    -0.0128 C.ar    
   5 C5             1.1599     2.1066     0.0023 C.ar    
   6 N6             3.7146    -0.3345    -0.0357 N.2     
   7 C7             4.4768     0.7318    -0.0351 C.2     
   8 N8             3.6973     1.8580    -0.0212 N.pl3   
   9 C9             5.9543     0.7206    -0.0476 C.2     
  10 C10            6.7768    -0.4295    -0.0626 C.2     
  11 C11            8.0672    -0.0147    -0.0713 C.2     
  12 N12            8.0680     1.3443    -0.0624 N.pl3   
  13 N13            6.7375     1.7814    -0.0526 N.2     
  14 N14            6.3357    -1.7628    -0.0670 N.am    
  15 C15            7.2321    -2.7691    -0.0817 C.2     
  16 O16            8.4229    -2.5226    -0.0911 O.2     
  17 C17            6.7687    -4.1697    -0.0864 C.ar    
  18 C18            6.5589    -4.8454     1.1206 C.ar    
  19 C19            6.1242    -6.1573     1.1070 C.ar    
  20 C20            5.8967    -6.8022    -0.0952 C.ar    
  21 C21            6.1020    -6.1420    -1.2930 C.ar    
  22 C22            6.5310    -4.8281    -1.2978 C.ar    
  23 F23            6.7809    -4.2174     2.2960 F       
  24 F24            6.7309    -4.1849    -2.4689 F       
  25 C25            1.2063    -0.6833    -0.0164 C.ar    
  26 O26           -1.1796    -0.6828     0.0177 O.3     
  27 C27           -1.1378    -2.0604    -0.3690 C.3     
  28 C28            0.0427    -2.7252     0.3521 C.3     
  29 O29            1.2416    -2.0439    -0.0330 O.3     
  30 H30           -0.9621     1.9110     0.0170 H       
  31 H31            1.1340     3.1863     0.0079 H       
  32 H32            4.0115     2.7758    -0.0179 H       
  33 H33            8.9397    -0.6511    -0.0833 H       
  34 H34            8.8538     1.9129    -0.0656 H       
  35 H35            5.3859    -1.9594    -0.0595 H       
  36 H36            5.9620    -6.6805     2.0378 H       
  37 H37            5.5571    -7.8274    -0.0986 H       
  38 H38            5.9223    -6.6532    -2.2273 H       
  39 H39           -2.0677    -2.5513    -0.0819 H       
  40 H40           -0.9995    -2.1355    -1.4475 H       
  41 H41           -0.0942    -2.6478     1.4307 H       
  42 H42            0.1067    -3.7742     0.0631 H       
@<TRIPOS>BOND
   1    1    2 ar
   2    1    5 ar
   3    1   30 1
   4    2   25 ar
   5    2   26 1
   6    3    4 ar
   7    3    6 1
   8    3   25 ar
   9    4    5 ar
  10    4    8 1
  11    5   31 1
  12    6    7 2
  13    7    8 1
  14    7    9 1
  15    8   32 1
  16    9   10 1
  17    9   13 2
  18   10   11 2
  19   10   14 1
  20   11   12 1
  21   11   33 1
  22   12   13 1
  23   12   34 1
  24   14   15 am
  25   14   35 1
  26   15   16 2
  27   15   17 1
  28   17   18 ar
  29   17   22 ar
  30   18   19 ar
  31   18   23 1
  32   19   20 ar
  33   19   36 1
  34   20   21 ar
  35   20   37 1
  36   21   22 ar
  37   21   38 1
  38   22   24 1
  39   25   29 1
  40   26   27 1
  41   27   28 1
  42   27   39 1
  43   27   40 1
  44   28   29 1
  45   28   41 1
  46   28   42 1

#	End of record

