#	Name: ASD06350010
#	Creating user name:	WinNT
#	Creation time:	15. 06. 2019 21:06

#	Modifying user name:	WinNT
#	Modification time:	15. 06. 2019 21:06

#	Program:	/corina/corina34_cracker 3.40 0067  02.08.2006

@<TRIPOS>MOLECULE
ASD06350010
  25   26    0    0    0
SMALL
NO_CHARGES


@<TRIPOS>ATOM
   1 F1             0.0021    -0.0041     0.0020 F       
   2 C2            -0.0162     1.3468     0.0094 C.ar    
   3 C3             1.1741     2.0542     0.0019 C.ar    
   4 C4             1.1589     3.4356     0.0099 C.ar    
   5 C5            -0.0508     4.1157     0.0251 C.ar    
   6 C6            -1.2461     3.4042     0.0322 C.ar    
   7 C7            -1.2256     2.0217     0.0189 C.ar    
   8 F8            -2.4255     4.0630     0.0471 F       
   9 N9            -0.0681     5.5169     0.0337 N.am    
  10 C10           -0.0872     6.1908    -1.1421 C.2     
  11 C11           -0.1043     7.5484    -1.1754 C.2     
  12 C12           -0.1021     8.2776     0.0129 C.2     
  13 C13           -0.0825     7.5909     1.2267 C.2     
  14 C14           -0.0711     6.1722     1.2101 C.2     
  15 O15           -0.0540     5.5487     2.2572 O.2     
  16 C16           -0.0791     8.3236     2.5001 C.2     
  17 O17           -0.0934     9.5392     2.5019 O.2     
  18 O18           -0.0601     7.6478     3.6666 O.3     
  19 H19            2.1157     1.5254    -0.0099 H       
  20 H20            2.0880     3.9861     0.0047 H       
  21 H21           -2.1528     1.4680     0.0240 H       
  22 H22           -0.0884     5.6380    -2.0699 H       
  23 H23           -0.1193     8.0641    -2.1241 H       
  24 H24           -0.1149     9.3573    -0.0063 H       
  25 H25           -0.0586     8.1733     4.4784 H       
@<TRIPOS>BOND
   1    1    2 1
   2    2    3 ar
   3    2    7 ar
   4    3    4 ar
   5    3   19 1
   6    4    5 ar
   7    4   20 1
   8    5    6 ar
   9    5    9 1
  10    6    7 ar
  11    6    8 1
  12    7   21 1
  13    9   10 1
  14    9   14 am
  15   10   11 2
  16   10   22 1
  17   11   12 1
  18   11   23 1
  19   12   13 2
  20   12   24 1
  21   13   14 1
  22   13   16 1
  23   14   15 2
  24   16   17 2
  25   16   18 1
  26   18   25 1

#	End of record

