#	Name: ASD01883133
#	Creating user name:	WinNT
#	Creation time:	15. 06. 2019 19:45

#	Modifying user name:	WinNT
#	Modification time:	15. 06. 2019 19:45

#	Program:	/corina/corina34_cracker 3.40 0067  02.08.2006

@<TRIPOS>MOLECULE
ASD01883133
  38   39    0    0    0
SMALL
NO_CHARGES


@<TRIPOS>ATOM
   1 N1            -0.0162     1.3417     0.0094 N.am    
   2 C2             0.0021    -0.0041     0.0020 C.2     
   3 C3            -1.2163    -0.7274     0.0102 C.2     
   4 C4            -2.4259    -0.0115     0.0261 C.2     
   5 C5            -2.3786     1.3962     0.0332 C.2     
   6 C6            -1.1849     2.0322     0.0299 C.2     
   7 O7             1.0656    -0.6000    -0.0121 O.2     
   8 C8            -1.2154    -2.1594     0.0021 C.1     
   9 N9            -1.2147    -3.2954    -0.0044 N.1     
  10 C10            1.2512     2.0765     0.0013 C.3     
  11 C11            1.6786     2.3400    -1.4440 C.3     
  12 C12            3.0022     3.1074    -1.4525 C.3     
  13 C13            4.1049     2.2289    -0.8581 C.3     
  14 C14            3.3667     3.4797    -2.8911 C.3     
  15 C15           -3.7222    -0.7220     0.0347 C.ar    
  16 C16           -4.4760    -0.7919     1.2075 C.ar    
  17 C17           -5.6846    -1.4564     1.2089 C.ar    
  18 C18           -6.1521    -2.0539     0.0513 C.ar    
  19 C19           -5.4123    -1.9905    -1.1153 C.ar    
  20 C20           -4.2021    -1.3227    -1.1336 C.ar    
  21 F21           -3.4796    -1.2605    -2.2735 F       
  22 H22           -3.2950     1.9675     0.0450 H       
  23 H23           -1.1611     3.1119     0.0358 H       
  24 H24            1.1241     3.0259     0.5214 H       
  25 H25            2.0168     1.4860     0.5046 H       
  26 H26            1.8057     1.3906    -1.9642 H       
  27 H27            0.9131     2.9305    -1.9474 H       
  28 H28            2.9000     4.0147    -0.8572 H       
  29 H29            5.0479     2.7756    -0.8642 H       
  30 H30            3.8453     1.9637     0.1668 H       
  31 H31            4.2071     1.3216    -1.4534 H       
  32 H32            2.5811     4.1055    -3.3146 H       
  33 H33            4.3096     4.0264    -2.8971 H       
  34 H34            3.4689     2.5724    -3.4864 H       
  35 H35           -4.1133    -0.3268     2.1122 H       
  36 H36           -6.2679    -1.5109     2.1162 H       
  37 H37           -7.0994    -2.5727     0.0593 H       
  38 H38           -5.7830    -2.4593    -2.0148 H       
@<TRIPOS>BOND
   1    1    2 am
   2    1   10 1
   3    1    6 1
   4    2    3 1
   5    2    7 2
   6    3    4 2
   7    3    8 1
   8    4    5 1
   9    4   15 1
  10    5    6 2
  11    5   22 1
  12    6   23 1
  13    8    9 3
  14   10   11 1
  15   10   24 1
  16   10   25 1
  17   11   12 1
  18   11   26 1
  19   11   27 1
  20   12   13 1
  21   12   14 1
  22   12   28 1
  23   13   29 1
  24   13   30 1
  25   13   31 1
  26   14   32 1
  27   14   33 1
  28   14   34 1
  29   15   16 ar
  30   15   20 ar
  31   16   17 ar
  32   16   35 1
  33   17   18 ar
  34   17   36 1
  35   18   19 ar
  36   18   37 1
  37   19   20 ar
  38   19   38 1
  39   20   21 1

#	End of record

