#	Name: ASD03240862
#	Creating user name:	WinNT
#	Creation time:	15. 06. 2019 20:35

#	Modifying user name:	WinNT
#	Modification time:	15. 06. 2019 20:35

#	Program:	/corina/corina34_cracker 3.40 0067  02.08.2006

@<TRIPOS>MOLECULE
ASD03240862
  79   85    0    0    0
SMALL
NO_CHARGES


@<TRIPOS>ATOM
   1 N1            -0.0178     1.4642     0.0101 N.3     
   2 C2             0.0021    -0.0041     0.0020 C.3     
   3 C3             0.7039    -0.5130     1.2631 C.3     
   4 C4             2.1331     0.0352     1.3025 C.3     
   5 C5             2.0858     1.5651     1.2611 C.3     
   6 C6             1.3439     2.0138     0.0000 C.3     
   7 C7             2.8099    -0.4136     2.5720 C.2     
   8 O8             2.2093    -1.1040     3.3679 O.2     
   9 N9             4.0825    -0.0476     2.8228 N.am    
  10 C10            4.7405    -0.4839     4.0569 C.3     
  11 C11            6.1683     0.0645     4.0950 C.3     
  12 C12            7.5505    -1.5725     5.3991 C.ar    
  13 C13            6.8451    -0.3843     5.3645 C.ar    
  14 C14            6.7684     0.3895     6.5121 C.ar    
  15 C15            7.4071    -0.0628     7.6569 C.ar    
  16 C16            8.0938    -1.2612     7.6161 C.ar    
  17 N17            8.1453    -1.9717     6.5061 N.ar    
  18 C18           -0.8045     1.9863    -1.1153 C.3     
  19 C19           -1.0092     3.4690    -0.9402 C.ar    
  20 C20           -0.0910     4.3584    -1.4693 C.ar    
  21 C21           -0.2730     5.7171    -1.3127 C.ar    
  22 C22           -1.3857     6.1934    -0.6192 C.ar    
  23 C23           -2.3079     5.2916    -0.0881 C.ar    
  24 C24           -2.1175     3.9353    -0.2560 C.ar    
  25 N25            0.4393    10.5598     0.0407 N.pl3   
  26 C26            0.2754    11.9090     0.2021 C.2     
  27 N27           -0.9402    12.4842     0.2034 N.2     
  28 C28           -2.0371    11.7882     0.0504 C.2     
  29 C29           -1.9408    10.3409    -0.1274 C.ar    
  30 C30           -3.0778     9.5430    -0.2948 C.ar    
  31 C31           -2.8945     8.1739    -0.4578 C.ar    
  32 C32           -1.5868     7.6504    -0.4471 C.ar    
  33 N33           -0.5339     8.4375    -0.2856 N.ar    
  34 C34           -0.6625     9.7435    -0.1283 C.ar    
  35 C35            1.5451    12.4517     0.3463 C.2     
  36 C36            2.4613    11.4104     0.2685 C.2     
  37 N37            1.8112    10.2850     0.0929 N.2     
  38 C38           -4.0608     7.2767    -0.6389 C.ar    
  39 C39           -5.1405     7.3466     0.2401 C.ar    
  40 C40           -6.2236     6.5093     0.0663 C.ar    
  41 C41           -6.2393     5.6020    -0.9777 C.ar    
  42 C42           -5.1705     5.5278    -1.8529 C.ar    
  43 C43           -4.0845     6.3641    -1.6923 C.ar    
  44 C44            3.9580    11.5504     0.3746 C.3     
  45 H45           -1.0204    -0.3810    -0.0218 H       
  46 H46            0.5390    -0.3552    -0.8792 H       
  47 H47            0.1597    -0.1738     2.1445 H       
  48 H48            0.7324    -1.6025     1.2493 H       
  49 H49            2.6892    -0.3354     0.4414 H       
  50 H50            1.5633     1.9370     2.1425 H       
  51 H51            3.1015     1.9603     1.2458 H       
  52 H52            1.8745     1.6533    -0.8812 H       
  53 H53            1.2960     3.1025    -0.0252 H       
  54 H54            4.5628     0.5046     2.1862 H       
  55 H55            4.1846    -0.1100     4.9167 H       
  56 H56            4.7686    -1.5731     4.0881 H       
  57 H57            6.7241    -0.3094     3.2351 H       
  58 H58            6.1401     1.1537     4.0638 H       
  59 H59            7.6112    -2.1833     4.5105 H       
  60 H60            6.2246     1.3226     6.5145 H       
  61 H61            7.3686     0.5146     8.5689 H       
  62 H62            8.5938    -1.6203     8.5034 H       
  63 H63           -0.2719     1.8007    -2.0480 H       
  64 H64           -1.7729     1.4868    -1.1444 H       
  65 H65            0.7703     3.9884    -2.0056 H       
  66 H66            0.4446     6.4104    -1.7258 H       
  67 H67           -3.1712     5.6543     0.4501 H       
  68 H68           -2.8330     3.2363     0.1512 H       
  69 H69           -3.0005    12.2763     0.0559 H       
  70 H70           -4.0669     9.9767    -0.2977 H       
  71 H71            1.7786    13.4960     0.4923 H       
  72 H72           -5.1291     8.0544     1.0558 H       
  73 H73           -7.0605     6.5623     0.7469 H       
  74 H74           -7.0891     4.9487    -1.1099 H       
  75 H75           -5.1879     4.8170    -2.6658 H       
  76 H76           -3.2527     6.3084    -2.3788 H       
  77 H77            4.2588    11.4552     1.4180 H       
  78 H78            4.4387    10.7695    -0.2147 H       
  79 H79            4.2592    12.5276    -0.0027 H       
@<TRIPOS>BOND
   1    1    2 1
   2    1    6 1
   3    1   18 1
   4    2    3 1
   5    2   45 1
   6    2   46 1
   7    3    4 1
   8    3   47 1
   9    3   48 1
  10    4    5 1
  11    4    7 1
  12    4   49 1
  13    5    6 1
  14    5   50 1
  15    5   51 1
  16    6   52 1
  17    6   53 1
  18    7    8 2
  19    7    9 am
  20    9   10 1
  21    9   54 1
  22   10   11 1
  23   10   55 1
  24   10   56 1
  25   11   13 1
  26   11   57 1
  27   11   58 1
  28   12   13 ar
  29   12   17 ar
  30   12   59 1
  31   13   14 ar
  32   14   15 ar
  33   14   60 1
  34   15   16 ar
  35   15   61 1
  36   16   17 ar
  37   16   62 1
  38   18   19 1
  39   18   63 1
  40   18   64 1
  41   19   20 ar
  42   19   24 ar
  43   20   21 ar
  44   20   65 1
  45   21   22 ar
  46   21   66 1
  47   22   23 ar
  48   22   32 1
  49   23   24 ar
  50   23   67 1
  51   24   68 1
  52   25   26 1
  53   25   34 1
  54   25   37 1
  55   26   27 1
  56   26   35 2
  57   27   28 2
  58   28   29 1
  59   28   69 1
  60   29   30 ar
  61   29   34 ar
  62   30   31 ar
  63   30   70 1
  64   31   32 ar
  65   31   38 1
  66   32   33 ar
  67   33   34 ar
  68   35   36 1
  69   35   71 1
  70   36   37 2
  71   36   44 1
  72   38   39 ar
  73   38   43 ar
  74   39   40 ar
  75   39   72 1
  76   40   41 ar
  77   40   73 1
  78   41   42 ar
  79   41   74 1
  80   42   43 ar
  81   42   75 1
  82   43   76 1
  83   44   77 1
  84   44   78 1
  85   44   79 1

#	End of record

