#	Name: ASD08150404
#	Creating user name:	WinNT
#	Creation time:	15. 06. 2019 21:15

#	Modifying user name:	WinNT
#	Modification time:	15. 06. 2019 21:15

#	Program:	/corina/corina34_cracker 3.40 0067  02.08.2006

@<TRIPOS>MOLECULE
ASD08150404
  43   47    0    0    0
SMALL
NO_CHARGES


@<TRIPOS>ATOM
   1 N1             0.8941     2.9271    -1.6421 N.am    
   2 C2             1.3264     2.3057    -2.7565 C.2     
   3 C3             2.5361     1.5818    -2.7584 C.2     
   4 C4             3.2858     1.5012    -1.6298 C.2     
   5 C5             2.8344     2.1542    -0.4555 C.ar    
   6 C6             3.5740     2.1025     0.7415 C.ar    
   7 N7             3.1552     2.7057     1.8232 N.ar    
   8 C8             2.0093     3.4027     1.8581 C.ar    
   9 C9             1.2010     3.5085     0.6994 C.ar    
  10 C10            1.6257     2.8664    -0.4873 C.ar    
  11 C11            0.0080     4.2364     0.7466 C.ar    
  12 C12           -0.3715     4.8481     1.9302 C.ar    
  13 C13            0.4335     4.7390     3.0727 C.ar    
  14 C14            1.5967     4.0350     3.0424 C.ar    
  15 O15            0.6623     2.3698    -3.7769 O.2     
  16 C16           -1.6353     5.6226     1.9888 C.ar    
  17 C17           -0.3078     3.6440    -1.6672 C.ar    
  18 C18           -1.7249     6.7909     2.7503 C.ar    
  19 C19           -0.3018     5.0027    -1.9548 C.ar    
  20 N20           -2.8680     7.4529     2.7772 N.ar    
  21 C21           -3.9194     7.0223     2.0947 C.ar    
  22 N22           -3.8736     5.9191     1.3618 N.ar    
  23 C23           -2.7646     5.2056     1.2793 C.ar    
  24 C24           -1.4895     5.7071    -1.9792 C.ar    
  25 C25           -2.6839     5.0609    -1.7178 C.ar    
  26 C26           -2.6933     3.7081    -1.4312 C.ar    
  27 C27           -1.5096     2.9969    -1.4103 C.ar    
  28 N28           -5.0982     7.7447     2.1494 N.pl3   
  29 H29            2.8673     1.0895    -3.6608 H       
  30 H30            4.2129     0.9472    -1.6265 H       
  31 H31            4.5041     1.5542     0.7666 H       
  32 H32           -0.6127     4.3214    -0.1332 H       
  33 H33            0.1262     5.2211     3.9890 H       
  34 H34            2.2047     3.9613     3.9320 H       
  35 H35           -0.8722     7.1473     3.3091 H       
  36 H36            0.6306     5.5080    -2.1587 H       
  37 H37           -2.7344     4.3075     0.6801 H       
  38 H38           -1.4855     6.7637    -2.2024 H       
  39 H39           -3.6113     5.6140    -1.7372 H       
  40 H40           -3.6276     3.2064    -1.2271 H       
  41 H41           -1.5175     1.9404    -1.1863 H       
  42 H42           -5.1468     8.5540     2.6819 H       
  43 H43           -5.8759     7.4418     1.6552 H       
@<TRIPOS>BOND
   1    1    2 am
   2    1   10 1
   3    1   17 1
   4    2    3 1
   5    2   15 2
   6    3    4 2
   7    3   29 1
   8    4    5 1
   9    4   30 1
  10    5    6 ar
  11    5   10 ar
  12    6    7 ar
  13    6   31 1
  14    7    8 ar
  15    8    9 ar
  16    8   14 ar
  17    9   10 ar
  18    9   11 ar
  19   11   12 ar
  20   11   32 1
  21   12   13 ar
  22   12   16 1
  23   13   14 ar
  24   13   33 1
  25   14   34 1
  26   16   18 ar
  27   16   23 ar
  28   17   19 ar
  29   17   27 ar
  30   18   20 ar
  31   18   35 1
  32   19   24 ar
  33   19   36 1
  34   20   21 ar
  35   21   22 ar
  36   21   28 1
  37   22   23 ar
  38   23   37 1
  39   24   25 ar
  40   24   38 1
  41   25   26 ar
  42   25   39 1
  43   26   27 ar
  44   26   40 1
  45   27   41 1
  46   28   42 1
  47   28   43 1

#	End of record

