#	Name: ASD05790102
#	Creating user name:	WinNT
#	Creation time:	15. 06. 2019 21:03

#	Modifying user name:	WinNT
#	Modification time:	15. 06. 2019 21:03

#	Program:	/corina/corina34_cracker 3.40 0067  02.08.2006

@<TRIPOS>MOLECULE
ASD05790102
  95   99    0    0    0
SMALL
NO_CHARGES


@<TRIPOS>ATOM
   1 C1            -0.1128     1.9033     0.5180 C.3     
   2 C2            -0.2847     0.3998     0.5285 C.2     
   3 C3             0.3782    -0.4001    -0.5687 C.3     
   4 C4             1.8611    -0.0149    -0.6450 C.3     
   5 C5             1.9796     1.5112    -0.7985 C.3     
   6 C6             1.3838     2.2120     0.4180 C.3     
   7 C7             2.4797    -0.7193    -1.8559 C.3     
   8 C8             1.8094    -0.2543    -3.1605 C.3     
   9 C9             2.0017     1.2467    -3.2563 C.3     
  10 C10            1.2469     1.8932    -2.0654 C.3     
  11 C11            1.3348     1.9398    -4.4497 C.3     
  12 C12            1.1378     3.3794    -3.9838 C.2     
  13 C13            1.2299     3.3654    -2.4532 C.3     
  14 C14            3.4543     1.8953    -0.9349 C.3     
  15 O15           -0.9327    -0.1452     1.3895 O.2     
  16 C16            2.2704     1.8809    -5.6446 C.3     
  17 C17            1.7212     2.5130    -6.8775 C.3     
  18 C18            1.8231     4.0170    -6.9336 C.3     
  19 C19            0.7364     4.6974    -6.1239 C.3     
  20 C20            0.8790     4.4136    -4.6719 C.2     
  21 C21            0.6665     5.6379    -3.8193 C.3     
  22 C22            1.7132     4.4801    -8.4123 C.3     
  23 C23            3.0526     5.1793    -8.6607 C.3     
  24 C24            3.9533     4.4644    -7.6152 C.3     
  25 O25            3.1264     4.4356    -6.4570 O.3     
  26 N26            3.6544     4.9578    -9.9665 N.4     
  27 C27            4.9331     5.6917    -9.9962 C.3     
  28 C28            5.8973     5.1976    -8.9218 C.3     
  29 C29            5.2449     5.2526    -7.5292 C.3     
  30 C30            1.5507     3.2776    -9.3441 C.3     
  31 C31            7.1485     6.0783    -8.9258 C.3     
  32 H32           -0.6340     2.3271    -0.3404 H       
  33 H33           -0.5150     2.3260     1.4387 H       
  34 H34            0.2888    -1.4640    -0.3490 H       
  35 H35           -0.1046    -0.1818    -1.5213 H       
  36 H36            2.3680    -0.3307     0.2668 H       
  37 H37            1.5256     3.2884     0.3211 H       
  38 H38            1.8865     1.8620     1.3196 H       
  39 H39            3.5446    -0.4906    -1.8985 H       
  40 H40            2.3490    -1.7962    -1.7497 H       
  41 H41            2.2794    -0.7435    -4.0137 H       
  42 H42            0.7458    -0.4910    -3.1358 H       
  43 H43            3.0623     1.4939    -3.2106 H       
  44 H44            0.2257     1.5138    -2.0281 H       
  45 H45            0.3749     1.4754    -4.6753 H       
  46 H46            0.3619     3.8608    -2.0180 H       
  47 H47            2.1480     3.8531    -2.1255 H       
  48 H48            3.9077     1.3164    -1.7395 H       
  49 H49            3.5333     2.9582    -1.1630 H       
  50 H50            3.9726     1.6850     0.0006 H       
  51 H51            3.2012     2.3837    -5.3819 H       
  52 H52            2.4931     0.8359    -5.8600 H       
  53 H53            2.2498     2.1019    -7.7375 H       
  54 H54            0.6701     2.2378    -6.9641 H       
  55 H55            0.7946     5.7740    -6.2836 H       
  56 H56           -0.2362     4.3405    -6.4626 H       
  57 H57            0.4483     6.4929    -4.4591 H       
  58 H58           -0.1703     5.4680    -3.1418 H       
  59 H59            1.5680     5.8382    -3.2401 H       
  60 H60            0.8857     5.1787    -8.5361 H       
  61 H61            2.9754     6.2434    -8.4376 H       
  62 H62            4.1632     3.4466    -7.9438 H       
  63 H63            3.8217     3.9723   -10.1038 H       
  64 H64            3.0425     5.3061   -10.6892 H       
  65 H65            5.3948     5.5606   -10.9748 H       
  66 H66            4.7374     6.7521    -9.8370 H       
  67 H67            6.1835     4.1694    -9.1428 H       
  68 H68            5.0324     6.2868    -7.2584 H       
  69 H69            5.9072     4.8019    -6.7900 H       
  70 H70            0.7143     2.6660    -9.0056 H       
  71 H71            1.3580     3.6273   -10.3584 H       
  72 H72            2.4640     2.6827    -9.3322 H       
  73 H73            6.8668     7.1106    -8.7181 H       
  74 H74            7.8408     5.7294    -8.1596 H       
  75 H75            7.6291     6.0223    -9.9025 H       
  76 C76           15.3890    17.3206     8.4485 C.3     
  77 C77           15.4098    15.7908     8.4401 C.3     
  78 C78           13.9744    15.2612     8.4510 C.3     
  79 O79           16.0787    15.3299     7.2644 O.3     
  80 C80           13.9942    13.7587     8.5666 C.2     
  81 O81           15.0481    13.1718     8.6334 O.2     
  82 O82           12.8408    13.0726     8.5953 O.3     
  83 C83           16.1387    15.2915     9.6610 C.2     
  84 O84           17.1293    14.6109     9.5370 O.2     
  85 O85           15.6874    15.6030    10.8862 O.3     
  86 C86           16.8028    17.8422     8.4378 C.2     
  87 O87           17.7402    17.0626     8.4247 O.co2   
  88 O88           17.0094    19.0438     8.4423 O.co2   
  89 H89           14.8619    17.6817     7.5655 H       
  90 H90           14.8789    17.6721     9.3453 H       
  91 H91           13.4376    15.6839     9.3002 H       
  92 H92           13.4743    15.5479     7.5259 H       
  93 H93           15.6634    15.6142     6.4387 H       
  94 H94           12.9041    12.1106     8.6703 H       
  95 H95           16.1882    15.2599    11.6389 H       
@<TRIPOS>BOND
   1    1    2 1
   2    1    6 1
   3    1   32 1
   4    1   33 1
   5    2    3 1
   6    2   15 2
   7    3    4 1
   8    3   34 1
   9    3   35 1
  10    4    5 1
  11    4    7 1
  12    4   36 1
  13    5    6 1
  14    5   14 1
  15    5   10 1
  16    6   37 1
  17    6   38 1
  18    7    8 1
  19    7   39 1
  20    7   40 1
  21    8    9 1
  22    8   41 1
  23    8   42 1
  24    9   10 1
  25    9   11 1
  26    9   43 1
  27   10   13 1
  28   10   44 1
  29   11   12 1
  30   11   16 1
  31   11   45 1
  32   12   13 1
  33   12   20 2
  34   13   46 1
  35   13   47 1
  36   14   48 1
  37   14   49 1
  38   14   50 1
  39   16   17 1
  40   16   51 1
  41   16   52 1
  42   17   18 1
  43   17   53 1
  44   17   54 1
  45   18   19 1
  46   18   25 1
  47   18   22 1
  48   19   20 1
  49   19   55 1
  50   19   56 1
  51   20   21 1
  52   21   57 1
  53   21   58 1
  54   21   59 1
  55   22   23 1
  56   22   30 1
  57   22   60 1
  58   23   24 1
  59   23   26 1
  60   23   61 1
  61   24   25 1
  62   24   29 1
  63   24   62 1
  64   26   27 1
  65   26   63 1
  66   26   64 1
  67   27   28 1
  68   27   65 1
  69   27   66 1
  70   28   29 1
  71   28   31 1
  72   28   67 1
  73   29   68 1
  74   29   69 1
  75   30   70 1
  76   30   71 1
  77   30   72 1
  78   31   73 1
  79   31   74 1
  80   31   75 1
  81   76   77 1
  82   76   86 1
  83   76   89 1
  84   76   90 1
  85   77   78 1
  86   77   79 1
  87   77   83 1
  88   78   80 1
  89   78   91 1
  90   78   92 1
  91   79   93 1
  92   80   81 2
  93   80   82 1
  94   82   94 1
  95   83   84 2
  96   83   85 1
  97   85   95 1
  98   86   87 ar
  99   86   88 ar

#	End of record

