#	Name: ASD03092657
#	Creating user name:	WinNT
#	Creation time:	15. 06. 2019 20:32

#	Modifying user name:	WinNT
#	Modification time:	15. 06. 2019 20:32

#	Program:	/corina/corina34_cracker 3.40 0067  02.08.2006

@<TRIPOS>MOLECULE
ASD03092657
  46   49    0    0    0
SMALL
NO_CHARGES


@<TRIPOS>ATOM
   1 C1            -0.4725     1.5942     0.3240 C.ar    
   2 C2            -0.3894     0.1908     0.2188 C.ar    
   3 C3             0.8845    -0.4188     0.1945 C.ar    
   4 C4             2.0030     0.4087     0.2766 C.ar    
   5 C5             1.8279     1.7802     0.3778 C.ar    
   6 N6             0.6307     2.3237     0.3987 N.ar    
   7 N7            -2.5337     0.7072     0.2295 N.2     
   8 N8            -1.8110     1.9021     0.3295 N.pl3   
   9 C9            -1.7111    -0.3007     0.1592 C.2     
  10 C10            1.0268    -1.8861     0.0860 C.2     
  11 O11            0.2197    -2.6167     0.6270 O.2     
  12 N12            2.0512    -2.4140    -0.6128 N.am    
  13 C13            2.9286    -4.4075    -1.6679 C.ar    
  14 C14            2.2554    -3.7975    -0.6170 C.ar    
  15 C15            1.7872    -4.5841     0.4326 C.ar    
  16 C16            2.0142    -5.9499     0.3834 C.ar    
  17 C17            2.6924    -6.4832    -0.6966 C.ar    
  18 N18            3.1232    -5.7109    -1.6750 N.ar    
  19 C19            3.4360    -3.5712    -2.8143 C.3     
  20 C20           -2.3580     3.1881     0.4201 C.ar    
  21 C21           -3.5268     3.4969    -0.2634 C.ar    
  22 C22           -4.0640     4.7659    -0.1717 C.ar    
  23 C23           -3.4393     5.7286     0.5997 C.ar    
  24 C24           -2.2751     5.4245     1.2812 C.ar    
  25 C25           -1.7360     4.1557     1.1982 C.ar    
  26 C26            3.0403     2.6708     0.4668 C.3     
  27 C27           -2.1053    -1.7505     0.0419 C.3     
  28 H28            2.9965    -0.0145     0.2619 H       
  29 H29            2.6469    -1.8343    -1.1128 H       
  30 H30            1.2604    -4.1403     1.2644 H       
  31 H31            1.6657    -6.5905     1.1800 H       
  32 H32            2.8724    -7.5473    -0.7396 H       
  33 H33            4.4500    -3.2349    -2.5978 H       
  34 H34            3.4383    -4.1681    -3.7264 H       
  35 H35            2.7869    -2.7058    -2.9480 H       
  36 H36           -4.0150     2.7455    -0.8664 H       
  37 H37           -4.9727     5.0067    -0.7033 H       
  38 H38           -3.8613     6.7203     0.6698 H       
  39 H39           -1.7891     6.1788     1.8823 H       
  40 H40           -0.8293     3.9174     1.7345 H       
  41 H41            3.3507     2.9633    -0.5363 H       
  42 H42            2.7953     3.5613     1.0456 H       
  43 H43            3.8519     2.1317     0.9555 H       
  44 H44           -2.1227    -2.2036     1.0332 H       
  45 H45           -3.0955    -1.8226    -0.4080 H       
  46 H46           -1.3828    -2.2740    -0.5842 H       
@<TRIPOS>BOND
   1    1    2 ar
   2    1    6 ar
   3    1    8 1
   4    2    3 ar
   5    2    9 1
   6    3    4 ar
   7    3   10 1
   8    4    5 ar
   9    4   28 1
  10    5    6 ar
  11    5   26 1
  12    7    8 1
  13    7    9 2
  14    8   20 1
  15    9   27 1
  16   10   11 2
  17   10   12 am
  18   12   14 1
  19   12   29 1
  20   13   14 ar
  21   13   18 ar
  22   13   19 1
  23   14   15 ar
  24   15   16 ar
  25   15   30 1
  26   16   17 ar
  27   16   31 1
  28   17   18 ar
  29   17   32 1
  30   19   33 1
  31   19   34 1
  32   19   35 1
  33   20   21 ar
  34   20   25 ar
  35   21   22 ar
  36   21   36 1
  37   22   23 ar
  38   22   37 1
  39   23   24 ar
  40   23   38 1
  41   24   25 ar
  42   24   39 1
  43   25   40 1
  44   26   41 1
  45   26   42 1
  46   26   43 1
  47   27   44 1
  48   27   45 1
  49   27   46 1

#	End of record

