#	Name: ASD00310039
#	Creating user name:	WinNT
#	Creation time:	15. 06. 2019 18:33

#	Modifying user name:	WinNT
#	Modification time:	15. 06. 2019 18:33

#	Program:	/corina/corina34_cracker 3.40 0067  02.08.2006

@<TRIPOS>MOLECULE
ASD00310039
  23   23    0    0    0
SMALL
NO_CHARGES


@<TRIPOS>ATOM
   1 C1            -0.0168     1.3858     0.0097 C.ar    
   2 C2             0.0021    -0.0041     0.0020 C.ar    
   3 C3             1.2195    -0.6637    -0.0132 C.ar    
   4 C4             2.3827     0.0915    -0.0203 C.ar    
   5 C5             2.2924     1.4766    -0.0120 C.ar    
   6 N6             1.1132     2.0770     0.0026 N.ar    
   7 N7            -1.2342     2.0574     0.0191 N.pl3   
   8 C8            -2.4855     1.3039     0.1315 C.3     
   9 C9            -1.2655     3.5185    -0.0834 C.3     
  10 O10            3.4256     2.2230    -0.0184 O.3     
  11 C11            3.2670     3.6432    -0.0093 C.3     
  12 Br12           4.0729    -0.7563    -0.0404 Br      
  13 H13           -0.9220    -0.5630     0.0082 H       
  14 H14            1.2623    -1.7428    -0.0190 H       
  15 H15           -2.7478     1.1899     1.1833 H       
  16 H16           -3.2808     1.8413    -0.3851 H       
  17 H17           -2.3590     0.3200    -0.3202 H       
  18 H18           -0.2470     3.8994    -0.1584 H       
  19 H19           -1.8281     3.8084    -0.9708 H       
  20 H20           -1.7448     3.9346     0.8027 H       
  21 H21            2.7079     3.9520    -0.8925 H       
  22 H22            2.7242     3.9424     0.8874 H       
  23 H23            4.2480     4.1183    -0.0157 H       
@<TRIPOS>BOND
   1    1    2 ar
   2    1    6 ar
   3    1    7 1
   4    2    3 ar
   5    2   13 1
   6    3    4 ar
   7    3   14 1
   8    4    5 ar
   9    4   12 1
  10    5    6 ar
  11    5   10 1
  12    7    8 1
  13    7    9 1
  14    8   15 1
  15    8   16 1
  16    8   17 1
  17    9   18 1
  18    9   19 1
  19    9   20 1
  20   10   11 1
  21   11   21 1
  22   11   22 1
  23   11   23 1

#	End of record

