#	Name: ASD01410612
#	Creating user name:	WinNT
#	Creation time:	15. 06. 2019 19:18

#	Modifying user name:	WinNT
#	Modification time:	15. 06. 2019 19:18

#	Program:	/corina/corina34_cracker 3.40 0067  02.08.2006

@<TRIPOS>MOLECULE
ASD01410612
  64   66    0    0    0
SMALL
NO_CHARGES


@<TRIPOS>ATOM
   1 C1             0.2330    -3.2723     1.2487 C.ar    
   2 C2             0.9552    -3.7640     2.3271 C.ar    
   3 C3             2.3286    -3.6201     2.3426 C.ar    
   4 N4             2.9572    -3.0233     1.3481 N.ar    
   5 C5             2.3039    -2.5418     0.3032 C.ar    
   6 C6             0.9217    -2.6513     0.2210 C.ar    
   7 O7             2.9905    -1.9354    -0.6974 O.3     
   8 C8             4.3330    -1.7805    -0.5478 C.ar    
   9 C9             5.1785    -2.8713    -0.7112 C.ar    
  10 C10            6.5428    -2.7251    -0.5616 C.ar    
  11 C11            7.0803    -1.4851    -0.2457 C.ar    
  12 C12            6.2320    -0.3797    -0.0794 C.ar    
  13 C13            4.8531    -0.5368    -0.2390 C.ar    
  14 N14            8.4583    -1.3383    -0.0938 N.am    
  15 C15            9.2337    -1.1032    -1.1708 C.2     
  16 C16            9.0635    -1.4397     1.2365 C.3     
  17 O17           10.4393    -1.0492    -1.0499 O.2     
  18 C18            8.6028    -0.9073    -2.5253 C.3     
  19 C19            9.6163    -1.2598    -3.6158 C.3     
  20 C20            8.9758    -1.0609    -4.9910 C.3     
  21 C21            8.5458     0.3991    -5.1470 C.3     
  22 C22            7.5322     0.7516    -4.0564 C.3     
  23 C23            8.1728     0.5527    -2.6813 C.3     
  24 C24            7.9053     0.5980    -6.5221 C.3     
  25 C25            9.3206    -2.9108     1.5690 C.3     
  26 O26           10.3171    -3.4315     0.6870 O.3     
  27 C27           10.5581    -4.8312     0.8439 C.3     
  28 C28           11.5511    -5.3003    -0.2214 C.3     
  29 C29            0.1817    -2.1014    -0.9711 C.3     
  30 F30           -1.1891    -2.3348    -0.8173 F       
  31 F31            0.4124    -0.7250    -1.0689 F       
  32 F32            0.6349    -2.7340    -2.1337 F       
  33 C33            6.7934     0.9411     0.2566 C.2     
  34 O34            7.9937     1.0749     0.3902 O.2     
  35 O35            5.9754     2.0001     0.4155 O.3     
  36 H36           -0.8413    -3.3759     1.2100 H       
  37 H37            0.4485    -4.2535     3.1456 H       
  38 H38            2.8951    -4.0006     3.1796 H       
  39 H39            4.7658    -3.8387    -0.9563 H       
  40 H40            7.1934    -3.5775    -0.6902 H       
  41 H41            4.1939     0.3093    -0.1126 H       
  42 H42           10.0070    -0.8941     1.2489 H       
  43 H43            8.3870    -1.0127     1.9769 H       
  44 H44            7.7306    -1.5547    -2.6169 H       
  45 H45           10.4885    -0.6124    -3.5242 H       
  46 H46            9.9227    -2.3000    -3.5047 H       
  47 H47            9.6979    -1.3121    -5.7679 H       
  48 H48            8.1036    -1.7083    -5.0826 H       
  49 H49            9.4180     1.0465    -5.0554 H       
  50 H50            7.2259     1.7917    -4.1676 H       
  51 H51            6.6601     0.1042    -4.1480 H       
  52 H52            7.4507     0.8039    -1.9044 H       
  53 H53            9.0450     1.2001    -2.5897 H       
  54 H54            7.0331    -0.0494    -6.6137 H       
  55 H55            7.5989     1.6381    -6.6333 H       
  56 H56            8.6273     0.3468    -7.2991 H       
  57 H57            9.6671    -2.9953     2.5990 H       
  58 H58            8.3971    -3.4773     1.4488 H       
  59 H59           10.9720    -5.0198     1.8345 H       
  60 H60            9.6208    -5.3761     0.7320 H       
  61 H61           11.1763    -5.0341    -1.2097 H       
  62 H62           12.5151    -4.8191    -0.0566 H       
  63 H63           11.6692    -6.3820    -0.1568 H       
  64 H64            6.3898     2.8457     0.6354 H       
@<TRIPOS>BOND
   1    1    2 ar
   2    1    6 ar
   3    1   36 1
   4    2    3 ar
   5    2   37 1
   6    3    4 ar
   7    3   38 1
   8    4    5 ar
   9    5    6 ar
  10    5    7 1
  11    6   29 1
  12    7    8 1
  13    8    9 ar
  14    8   13 ar
  15    9   10 ar
  16    9   39 1
  17   10   11 ar
  18   10   40 1
  19   11   12 ar
  20   11   14 1
  21   12   13 ar
  22   12   33 1
  23   13   41 1
  24   14   15 am
  25   14   16 1
  26   15   17 2
  27   15   18 1
  28   16   25 1
  29   16   42 1
  30   16   43 1
  31   18   19 1
  32   18   23 1
  33   18   44 1
  34   19   20 1
  35   19   45 1
  36   19   46 1
  37   20   21 1
  38   20   47 1
  39   20   48 1
  40   21   22 1
  41   21   24 1
  42   21   49 1
  43   22   23 1
  44   22   50 1
  45   22   51 1
  46   23   52 1
  47   23   53 1
  48   24   54 1
  49   24   55 1
  50   24   56 1
  51   25   26 1
  52   25   57 1
  53   25   58 1
  54   26   27 1
  55   27   28 1
  56   27   59 1
  57   27   60 1
  58   28   61 1
  59   28   62 1
  60   28   63 1
  61   29   30 1
  62   29   31 1
  63   29   32 1
  64   33   34 2
  65   33   35 1
  66   35   64 1

#	End of record

