#	Name: ASD01903319
#	Creating user name:	WinNT
#	Creation time:	15. 06. 2019 19:54

#	Modifying user name:	WinNT
#	Modification time:	15. 06. 2019 19:54

#	Program:	/corina/corina34_cracker 3.40 0067  02.08.2006

@<TRIPOS>MOLECULE
ASD01903319
  33   36    0    0    0
SMALL
NO_CHARGES


@<TRIPOS>ATOM
   1 N1            -0.0111     0.9658     0.0074 N.pl3   
   2 H2             0.0427    -0.0027     0.0036 H       
   3 C3             1.1498     1.7249    -0.0086 C.2     
   4 C4            -1.2527     1.5937     0.0229 C.ar    
   5 S5             2.7866     1.0831     0.0959 S.3     
   6 C6             3.4364     2.7113     0.0038 C.2     
   7 C7             2.3919     3.5842    -0.1092 C.2     
   8 N8             1.1986     3.0176    -0.1085 N.2     
   9 C9             4.8820     3.1299     0.0517 C.3     
  10 C10            5.1244     4.3986    -0.7675 C.3     
  11 C11            4.0236     5.3987    -0.5435 C.2     
  12 C12            2.7305     5.0335    -0.2447 C.2     
  13 N13            4.0517     6.7377    -0.5837 N.pl3   
  14 N14            2.7561     7.2125    -0.3223 N.2     
  15 C15            1.9649     6.1836    -0.1205 C.2     
  16 N16           -1.3200     2.9122     0.1238 N.ar    
  17 C17           -2.4769     3.5465     0.1422 C.ar    
  18 C18           -3.6667     2.8518     0.0566 C.ar    
  19 C19           -3.6399     1.4674    -0.0505 C.ar    
  20 C20           -2.4122     0.8309    -0.0734 C.ar    
  21 C21            0.4911     6.2420     0.1888 C.3     
  22 H22            5.1653     3.3151     1.0878 H       
  23 H23            5.4995     2.3249    -0.3469 H       
  24 H24            6.0759     4.8403    -0.4712 H       
  25 H25            5.1641     4.1400    -1.8256 H       
  26 H26            4.8325     7.2849    -0.7622 H       
  27 H27           -2.4931     4.6232     0.2256 H       
  28 H28           -4.6089     3.3795     0.0731 H       
  29 H29           -4.5569     0.9010    -0.1189 H       
  30 H30           -2.3547    -0.2445    -0.1558 H       
  31 H31           -0.0765     6.2228    -0.7415 H       
  32 H32            0.2142     5.3839     0.8013 H       
  33 H33            0.2698     7.1616     0.7305 H       
@<TRIPOS>BOND
   1    1    2 1
   2    1    3 1
   3    1    4 1
   4    3    5 1
   5    3    8 2
   6    4   16 ar
   7    4   20 ar
   8    5    6 1
   9    6    7 2
  10    6    9 1
  11    7    8 1
  12    7   12 1
  13    9   10 1
  14    9   22 1
  15    9   23 1
  16   10   11 1
  17   10   24 1
  18   10   25 1
  19   11   12 2
  20   11   13 1
  21   12   15 1
  22   13   14 1
  23   13   26 1
  24   14   15 2
  25   15   21 1
  26   16   17 ar
  27   17   18 ar
  28   17   27 1
  29   18   19 ar
  30   18   28 1
  31   19   20 ar
  32   19   29 1
  33   20   30 1
  34   21   31 1
  35   21   32 1
  36   21   33 1

#	End of record

