#	Name: ASD00843452
#	Creating user name:	WinNT
#	Creation time:	15. 06. 2019 18:46

#	Modifying user name:	WinNT
#	Modification time:	15. 06. 2019 18:46

#	Program:	/corina/corina34_cracker 3.40 0067  02.08.2006

@<TRIPOS>MOLECULE
ASD00843452
  93   98    0    0    0
SMALL
NO_CHARGES


@<TRIPOS>ATOM
   1 F1             5.7279    -2.5020    -1.8937 F       
   2 N2             0.9634     1.0826    -0.2155 N.ar    
   3 C3             1.1256    -0.1968    -0.5084 C.ar    
   4 C4             0.9573    -1.1728     0.4658 C.ar    
   5 C5             0.6167    -0.7894     1.7510 C.ar    
   6 C6             0.4557     0.5635     2.0177 C.ar    
   7 C7             0.6388     1.4788     1.0006 C.ar    
   8 C8             1.1427    -2.6295     0.1273 C.3     
   9 C9             0.7671    -3.5002     1.3074 C.2     
  10 C10            0.3103    -3.0032    -1.1009 C.3     
  11 C11           -1.1303    -2.6295    -0.8639 C.2     
  12 N12           -2.0712    -2.9653    -1.7686 N.am    
  13 O13           -1.4431    -2.0267     0.1410 O.2     
  14 C14           -3.4596    -2.5122    -1.6081 C.3     
  15 C15           -4.3861    -3.7306    -1.6703 C.3     
  16 C16           -4.1223    -4.5014    -2.9658 C.3     
  17 C17           -2.6738    -4.9949    -2.9818 C.3     
  18 C18           -1.7266    -3.7862    -2.9374 C.3     
  19 N19           -5.0322    -5.6520    -3.0445 N.3     
  20 C20           -4.8901    -6.3488    -4.3306 C.3     
  21 C21           -5.7943    -7.5836    -4.3414 C.3     
  22 N22           -7.1870    -7.1697    -4.1211 N.3     
  23 C23           -7.3292    -6.4729    -2.8350 C.3     
  24 C24           -6.4250    -5.2381    -2.8242 C.3     
  25 C25           -8.0969    -8.3203    -4.1998 C.3     
  26 O26           -0.3237    -3.5693     1.8332 O.2     
  27 N27            1.8688    -4.1824     1.6625 N.am    
  28 C28            2.6040    -2.9370    -0.1064 C.ar    
  29 C29            2.9644    -3.8751     0.8529 C.ar    
  30 C30            3.5217    -2.4769    -1.0236 C.ar    
  31 C31            4.8237    -2.9510    -0.9958 C.ar    
  32 C32            5.1949    -3.8867    -0.0437 C.ar    
  33 C33            4.2744    -4.3482     0.8762 C.ar    
  34 Cl34           6.8253    -4.4819    -0.0072 Cl      
  35 C35            1.5090    -6.8448     2.2596 C.ar    
  36 C36            2.5052    -7.6720     1.7747 C.ar    
  37 C37            0.1902    -7.2593     2.2352 C.ar    
  38 C38           -0.1353    -8.5015     1.7260 C.ar    
  39 C39            0.8624    -9.3334     1.2388 C.ar    
  40 C40            2.1848    -8.9150     1.2641 C.ar    
  41 O41            0.5447   -10.5561     0.7378 O.3     
  42 H42            3.5346    -7.3460     1.7949 H       
  43 C43            1.6232   -11.3589     0.2537 C.3     
  44 C44           -9.5162    -7.8735    -3.8433 C.3     
  45 C45           -8.0822    -8.8857    -5.6214 C.3     
  46 O46            1.4591    -0.5597    -1.7725 O.3     
  47 C47            1.5712     0.4864    -2.7395 C.3     
  48 C48            2.0525    -0.0977    -4.0692 C.3     
  49 F49            3.2594    -0.7768    -3.8707 F       
  50 F50            1.0923    -0.9878    -4.5623 F       
  51 S51            1.9217    -5.2628     2.9164 S.o2    
  52 O52            3.2811    -5.3393     3.3231 O.2     
  53 O53            0.8657    -4.9064     3.7979 O.2     
  54 H54            0.4790    -1.5259     2.5289 H       
  55 H55            0.1898     0.8963     3.0101 H       
  56 H56            0.5150     2.5324     1.2029 H       
  57 H57            0.6863    -2.4663    -1.9717 H       
  58 H58            0.3831    -4.0765    -1.2763 H       
  59 H59           -3.5728    -2.0158    -0.6443 H       
  60 H60           -3.7129    -1.8192    -2.4104 H       
  61 H61           -4.1928    -4.3787    -0.8155 H       
  62 H62           -5.4244    -3.3995    -1.6490 H       
  63 H63           -4.2920    -3.8455    -3.8196 H       
  64 H64           -2.4966    -5.6311    -2.1146 H       
  65 H65           -2.4933    -5.5638    -3.8939 H       
  66 H66           -1.8400    -3.1995    -3.8490 H       
  67 H67           -0.6968    -4.1321    -2.8487 H       
  68 H68           -5.1792    -5.6793    -5.1408 H       
  69 H69           -3.8531    -6.6562    -4.4650 H       
  70 H70           -5.7124    -8.0859    -5.3053 H       
  71 H71           -5.4878    -8.2657    -3.5484 H       
  72 H72           -8.3662    -6.1655    -2.7006 H       
  73 H73           -7.0401    -7.1424    -2.0248 H       
  74 H74           -6.5069    -4.7358    -1.8603 H       
  75 H75           -6.7315    -4.5560    -3.6172 H       
  76 H76           -7.7715    -9.0895    -3.4995 H       
  77 H77            3.2274    -1.7478    -1.7640 H       
  78 H78            4.5707    -5.0776     1.6155 H       
  79 H79           -0.5861    -6.6115     2.6149 H       
  80 H80           -1.1656    -8.8250     1.7075 H       
  81 H81            2.9634    -9.5609     0.8857 H       
  82 H82            2.1322   -10.8343    -0.5548 H       
  83 H83            2.3273   -11.5483     1.0639 H       
  84 H84            1.2326   -12.3066    -0.1172 H       
  85 H85           -9.8416    -7.1043    -4.5437 H       
  86 H86          -10.1913    -8.7272    -3.9018 H       
  87 H87           -9.5266    -7.4706    -2.8306 H       
  88 H88           -7.0712    -9.2040    -5.8754 H       
  89 H89           -8.7574    -9.7394    -5.6799 H       
  90 H90           -8.4077    -8.1165    -6.3218 H       
  91 H91            0.5981     0.9569    -2.8803 H       
  92 H92            2.2870     1.2300    -2.3891 H       
  93 H93            2.2030     0.7086    -4.7870 H       
@<TRIPOS>BOND
   1    1   31 1
   2    2    3 ar
   3    2    7 ar
   4    3    4 ar
   5    3   46 1
   6    4    5 ar
   7    4    8 1
   8    5    6 ar
   9    5   54 1
  10    6    7 ar
  11    6   55 1
  12    7   56 1
  13    8    9 1
  14    8   10 1
  15    8   28 1
  16    9   26 2
  17    9   27 am
  18   10   11 1
  19   10   57 1
  20   10   58 1
  21   11   12 am
  22   11   13 2
  23   12   14 1
  24   12   18 1
  25   14   15 1
  26   14   59 1
  27   14   60 1
  28   15   16 1
  29   15   61 1
  30   15   62 1
  31   16   17 1
  32   16   19 1
  33   16   63 1
  34   17   18 1
  35   17   64 1
  36   17   65 1
  37   18   66 1
  38   18   67 1
  39   19   20 1
  40   19   24 1
  41   20   21 1
  42   20   68 1
  43   20   69 1
  44   21   22 1
  45   21   70 1
  46   21   71 1
  47   22   23 1
  48   22   25 1
  49   23   24 1
  50   23   72 1
  51   23   73 1
  52   24   74 1
  53   24   75 1
  54   25   44 1
  55   25   45 1
  56   25   76 1
  57   27   51 am
  58   27   29 1
  59   28   29 ar
  60   28   30 ar
  61   29   33 ar
  62   30   31 ar
  63   30   77 1
  64   31   32 ar
  65   32   33 ar
  66   32   34 1
  67   33   78 1
  68   35   36 ar
  69   35   37 ar
  70   35   51 1
  71   36   42 1
  72   36   40 ar
  73   37   38 ar
  74   37   79 1
  75   38   39 ar
  76   38   80 1
  77   39   40 ar
  78   39   41 1
  79   40   81 1
  80   41   43 1
  81   43   82 1
  82   43   83 1
  83   43   84 1
  84   44   85 1
  85   44   86 1
  86   44   87 1
  87   45   88 1
  88   45   89 1
  89   45   90 1
  90   46   47 1
  91   47   48 1
  92   47   91 1
  93   47   92 1
  94   48   49 1
  95   48   50 1
  96   48   93 1
  97   51   52 2
  98   51   53 2

#	End of record

