#	Name: ASD02562066
#	Creating user name:	WinNT
#	Creation time:	15. 06. 2019 20:25

#	Modifying user name:	WinNT
#	Modification time:	15. 06. 2019 20:25

#	Program:	/corina/corina34_cracker 3.40 0067  02.08.2006

@<TRIPOS>MOLECULE
ASD02562066
  46   49    0    0    0
SMALL
NO_CHARGES


@<TRIPOS>ATOM
   1 C1             0.0965     0.9516     1.1015 C.2     
   2 C2             0.2529    -0.4460     1.1163 C.2     
   3 C3             1.4407    -1.0019     0.8047 C.2     
   4 N4             2.5113    -0.2167     0.4703 N.pl3   
   5 C5             2.3884     1.1539     0.4472 C.2     
   6 C6             1.1491     1.7458     0.7713 C.2     
   7 C7             3.7988    -0.5158     0.1203 C.2     
   8 C8             4.4386     0.6839    -0.1104 C.2     
   9 N9             3.5527     1.6753     0.0974 N.2     
  10 N10            4.3579    -1.7899     0.0169 N.3     
  11 C11            5.8540     0.8519    -0.5152 C.ar    
  12 C12            3.3295    -2.8292     0.1584 C.3     
  13 C13            3.8062    -4.1144    -0.5213 C.3     
  14 C14            2.7350    -5.1968    -0.3739 C.3     
  15 C15            2.4848    -5.4679     1.1110 C.3     
  16 C16            2.0081    -4.1827     1.7907 C.3     
  17 C17            3.0793    -3.1002     1.6433 C.3     
  18 C18            6.8601     0.1529     0.1503 C.ar    
  19 C19            8.1767     0.3131    -0.2316 C.ar    
  20 C20            8.4997     1.1654    -1.2720 C.ar    
  21 C21            7.5065     1.8627    -1.9366 C.ar    
  22 C22            6.1850     1.7064    -1.5682 C.ar    
  23 Cl23           4.9397     2.5818    -2.4027 Cl      
  24 C24            0.9939     3.2447     0.7514 C.3     
  25 H25           -0.8582     1.3923     1.3476 H       
  26 H26           -0.5831    -1.0773     1.3790 H       
  27 H27            1.5490    -2.0764     0.8194 H       
  28 H28            4.8608    -1.8947    -0.8516 H       
  29 H29            2.4050    -2.4917    -0.3102 H       
  30 H30            3.9845    -3.9213    -1.5792 H       
  31 H31            4.7307    -4.4518    -0.0527 H       
  32 H32            1.8106    -4.8594    -0.8425 H       
  33 H33            3.0747    -6.1124    -0.8582 H       
  34 H34            1.7217    -6.2390     1.2160 H       
  35 H35            3.4093    -5.8053     1.5795 H       
  36 H36            1.0836    -3.8453     1.3221 H       
  37 H37            1.8298    -4.3758     2.8485 H       
  38 H38            4.0037    -3.4377     2.1119 H       
  39 H39            2.7396    -2.1847     2.1275 H       
  40 H40            6.6097    -0.5125     0.9633 H       
  41 H41            8.9567    -0.2281     0.2834 H       
  42 H42            9.5315     1.2874    -1.5666 H       
  43 H43            7.7649     2.5273    -2.7477 H       
  44 H44            0.6780     3.5641    -0.2417 H       
  45 H45            0.2440     3.5421     1.4844 H       
  46 H46            1.9475     3.7120     0.9972 H       
@<TRIPOS>BOND
   1    1    2 1
   2    1    6 2
   3    1   25 1
   4    2    3 2
   5    2   26 1
   6    3    4 1
   7    3   27 1
   8    4    5 1
   9    4    7 1
  10    5    6 1
  11    5    9 2
  12    6   24 1
  13    7    8 2
  14    7   10 1
  15    8    9 1
  16    8   11 1
  17   10   12 1
  18   10   28 1
  19   11   18 ar
  20   11   22 ar
  21   12   13 1
  22   12   17 1
  23   12   29 1
  24   13   14 1
  25   13   30 1
  26   13   31 1
  27   14   15 1
  28   14   32 1
  29   14   33 1
  30   15   16 1
  31   15   34 1
  32   15   35 1
  33   16   17 1
  34   16   36 1
  35   16   37 1
  36   17   38 1
  37   17   39 1
  38   18   19 ar
  39   18   40 1
  40   19   20 ar
  41   19   41 1
  42   20   21 ar
  43   20   42 1
  44   21   22 ar
  45   21   43 1
  46   22   23 1
  47   24   44 1
  48   24   45 1
  49   24   46 1

#	End of record

