#	Name: ASD02408143
#	Creating user name:	WinNT
#	Creation time:	15. 06. 2019 20:21

#	Modifying user name:	WinNT
#	Modification time:	15. 06. 2019 20:21

#	Program:	/corina/corina34_cracker 3.40 0067  02.08.2006

@<TRIPOS>MOLECULE
ASD02408143
  42   45    0    0    0
SMALL
NO_CHARGES


@<TRIPOS>ATOM
   1 C1            -0.6092     1.5505     0.1106 C.ar    
   2 C2            -0.7410     0.1680     0.0952 C.ar    
   3 C3             0.6615     2.1065    -0.0157 C.ar    
   4 C4             1.7664     1.2914    -0.1483 C.ar    
   5 C5             1.6230    -0.0840    -0.1569 C.ar    
   6 C6             0.3640    -0.6441    -0.0339 C.ar    
   7 C7             0.8300     3.6040    -0.0081 C.3     
   8 C8             0.9142     4.0928     1.4150 C.2     
   9 N9             1.0671     5.4117     1.6425 N.am    
  10 N10            0.8313     3.2246     2.3862 N.2     
  11 C11            0.8993     3.6012     3.6695 C.2     
  12 C12            1.0637     4.9616     3.9786 C.2     
  13 C13            1.1457     5.8842     2.9042 C.2     
  14 N14            0.8088     2.6676     4.6726 N.pl3   
  15 C15            1.3096     1.2869     4.6057 C.3     
  16 O16            1.2884     7.0762     3.1157 O.2     
  17 C17           -2.2194    -0.1391     0.2351 C.3     
  18 C18           -2.8620     1.2334    -0.0762 C.3     
  19 O19           -1.8169     2.1591     0.2672 O.3     
  20 C20            0.9631     0.6083     5.9478 C.3     
  21 C21           -0.2125     1.4700     6.4796 C.3     
  22 C22            0.1993     2.8857     5.9970 C.3     
  23 C23            1.1408     5.4045     5.3382 C.1     
  24 N24            1.2020     5.7559     6.4168 N.1     
  25 H25            2.7486     1.7297    -0.2462 H       
  26 H26            2.4909    -0.7186    -0.2594 H       
  27 H27            0.2475    -1.7178    -0.0398 H       
  28 H28            1.7446     3.8695    -0.5382 H       
  29 H29           -0.0238     4.0682    -0.5017 H       
  30 H30            1.1214     6.0262     0.8939 H       
  31 H31            0.8252     0.7561     3.7861 H       
  32 H32            2.3898     1.2909     4.4604 H       
  33 H33           -2.5319    -0.8892    -0.4914 H       
  34 H34           -2.4565    -0.4591     1.2497 H       
  35 H35           -3.1143     1.3107    -1.1337 H       
  36 H36           -3.7425     1.3973     0.5450 H       
  37 H37            0.6447    -0.4219     5.7882 H       
  38 H38            1.8113     0.6495     6.6310 H       
  39 H39           -1.1572     1.1606     6.0324 H       
  40 H40           -0.2653     1.4300     7.5675 H       
  41 H41            0.9212     3.3259     6.6849 H       
  42 H42           -0.6784     3.5257     5.9062 H       
@<TRIPOS>BOND
   1    1    2 ar
   2    1    3 ar
   3    1   19 1
   4    2   17 1
   5    2    6 ar
   6    3    4 ar
   7    3    7 1
   8    4    5 ar
   9    4   25 1
  10    5    6 ar
  11    5   26 1
  12    6   27 1
  13    7    8 1
  14    7   28 1
  15    7   29 1
  16    8    9 1
  17    8   10 2
  18    9   13 am
  19    9   30 1
  20   10   11 1
  21   11   12 2
  22   11   14 1
  23   12   13 1
  24   12   23 1
  25   13   16 2
  26   14   15 1
  27   14   22 1
  28   15   20 1
  29   15   31 1
  30   15   32 1
  31   17   18 1
  32   17   33 1
  33   17   34 1
  34   18   19 1
  35   18   35 1
  36   18   36 1
  37   20   21 1
  38   20   37 1
  39   20   38 1
  40   21   22 1
  41   21   39 1
  42   21   40 1
  43   22   41 1
  44   22   42 1
  45   23   24 3

#	End of record

