#	Name: ASD01470005
#	Creating user name:	WinNT
#	Creation time:	15. 06. 2019 19:21

#	Modifying user name:	WinNT
#	Modification time:	15. 06. 2019 19:21

#	Program:	/corina/corina34_cracker 3.40 0067  02.08.2006

@<TRIPOS>MOLECULE
ASD01470005
 138  139    0    0    0
SMALL
NO_CHARGES


@<TRIPOS>ATOM
   1 C1           -16.9154     9.6293    -7.5582 C.ar    
   2 C2           -17.6127     8.4359    -7.5787 C.ar    
   3 C3           -17.2120     7.3874    -6.7719 C.ar    
   4 C4           -16.1138     7.5321    -5.9449 C.ar    
   5 C5           -15.4160     8.7253    -5.9251 C.ar    
   6 C6           -15.8175     9.7743    -6.7308 C.ar    
   7 C7           -18.8099     8.2780    -8.4803 C.3     
   8 C8           -18.3573     7.7417    -9.8398 C.3     
   9 N9           -17.5050     8.7352   -10.4977 N.am    
  10 C10          -16.6011     8.3442   -11.4177 C.2     
  11 C11          -15.7244     9.3663   -12.0944 C.3     
  12 O12          -16.4931     7.1699   -11.7010 O.2     
  13 N13          -14.8344     8.6940   -13.0443 N.am    
  14 C14          -16.5997    10.3745   -12.8415 C.3     
  15 C15          -17.3603     9.6673   -13.9334 C.2     
  16 N16          -18.1396    10.3723   -14.7773 N.am    
  17 O17          -17.2713     8.4636   -14.0528 O.2     
  18 C18          -13.6842     9.2849   -13.4242 C.2     
  19 O19          -13.4288    10.4104   -13.0516 O.2     
  20 C20          -12.7155     8.5471   -14.3121 C.3     
  21 C21          -11.5016     9.4354   -14.5915 C.3     
  22 C22          -10.5181     8.6863   -15.4929 C.3     
  23 C23           -9.3041     9.5747   -15.7722 C.3     
  24 C24           -0.5143    10.1317   -20.4953 C.3     
  25 C25            0.4691     9.3827   -21.3967 C.3     
  26 C26            2.6518     9.5332   -22.5640 C.2     
  27 O27            2.3964     8.4077   -22.9366 O.2     
  28 C28            5.5828    10.3998   -24.5692 C.2     
  29 N29            6.3568     9.9839   -25.5913 N.am    
  30 O30            5.5617    11.5731   -24.2629 O.2     
  31 C31            7.2288    10.9356   -26.2841 C.3     
  32 C32            8.5777    11.0078   -25.5656 C.3     
  33 C33            7.4403    10.4806   -27.7052 C.2     
  34 C34            9.4395    12.0972   -26.2070 C.3     
  35 C35            8.8033    13.4655   -25.9541 C.3     
  36 C36           10.8411    12.0654   -25.5942 C.3     
  37 O37            7.2228     9.3274   -28.0114 O.2     
  38 N38            7.8710    11.3552   -28.6357 N.am    
  39 C39            1.6831    10.2710   -21.6761 C.3     
  40 C40           10.2434    11.1695   -32.5427 C.ar    
  41 C41           10.5394    10.7302   -33.8196 C.ar    
  42 C42            9.5574    10.7158   -34.7915 C.ar    
  43 C43            8.2737    11.1426   -34.4850 C.ar    
  44 C44            7.9790    11.5826   -33.2025 C.ar    
  45 C45            8.9644    11.5955   -32.2346 C.ar    
  46 C46            8.1813    10.8903   -29.9899 C.3     
  47 C47            8.6452    12.0737   -30.8416 C.3     
  48 N48            3.8020    10.1241   -22.9439 N.am    
  49 C49            4.7437     9.4068   -23.8070 C.3     
  50 C50            5.6519     8.5244   -22.9484 C.3     
  51 O51            4.8505     7.6859   -22.1137 O.3     
  52 C52            6.5250     7.6555   -23.8560 C.3     
  53 O53            7.3062    11.1298   -35.4392 O.3     
  54 C54            7.6812    10.6641   -36.7372 C.3     
  55 C55          -19.5647     7.4678   -10.6990 C.2     
  56 O56          -19.6995     8.0435   -11.7527 O.2     
  57 O57          -20.4904     6.5843   -10.2937 O.3     
  58 C58           -8.3206     8.8256   -16.6736 C.3     
  59 C59           -7.1067     9.7139   -16.9530 C.3     
  60 C60           -6.1232     8.9649   -17.8544 C.3     
  61 C61           -4.9092     9.8532   -18.1338 C.3     
  62 C62           -3.9257     9.1041   -19.0352 C.3     
  63 C63           -2.7118     9.9925   -19.3146 C.3     
  64 C64           -1.7283     9.2434   -20.2160 C.3     
  65 H65          -17.2258    10.4470    -8.1919 H       
  66 H66          -17.7572     6.4552    -6.7874 H       
  67 H67          -15.8012     6.7132    -5.3140 H       
  68 H68          -14.5582     8.8385    -5.2787 H       
  69 H69          -15.2722    10.7063    -6.7156 H       
  70 H70          -19.5142     7.5786    -8.0299 H       
  71 H71          -19.2939     9.2455    -8.6142 H       
  72 H72          -17.7957     6.8184    -9.6975 H       
  73 H73          -17.5914     9.6744   -10.2711 H       
  74 H74          -15.1288     9.8874   -11.3449 H       
  75 H75          -15.0730     7.8236   -13.3998 H       
  76 H76          -17.3035    10.8307   -12.1453 H       
  77 H77          -15.9694    11.1481   -13.2801 H       
  78 H78          -18.2108    11.3350   -14.6818 H       
  79 H79          -18.6292     9.9171   -15.4801 H       
  80 H80          -12.3903     7.6333   -13.8147 H       
  81 H81          -13.2049     8.2943   -15.2527 H       
  82 H82          -11.8268    10.3492   -15.0889 H       
  83 H83          -11.0122     9.6882   -13.6509 H       
  84 H84          -10.1929     7.7726   -14.9954 H       
  85 H85          -11.0075     8.4335   -16.4334 H       
  86 H86           -9.6293    10.4884   -16.2697 H       
  87 H87           -8.8147     9.8275   -14.8316 H       
  88 H88           -0.0249    10.3845   -19.5547 H       
  89 H89           -0.8395    11.0455   -20.9928 H       
  90 H90            0.7943     8.4689   -20.8993 H       
  91 H91           -0.0202     9.1299   -22.3373 H       
  92 H92            6.3364     9.0545   -25.8681 H       
  93 H93            6.7637    11.9214   -26.2836 H       
  94 H94            8.4169    11.2439   -24.5138 H       
  95 H95            9.0855    10.0469   -25.6488 H       
  96 H96            9.5082    11.9212   -27.2805 H       
  97 H97            8.6420    13.5992   -24.8845 H       
  98 H98            9.4667    14.2482   -26.3222 H       
  99 H99            7.8480    13.5240   -26.4757 H       
 100 H100          11.2943    11.0906   -25.7743 H       
 101 H101          11.4551    12.8415   -26.0511 H       
 102 H102          10.7724    12.2414   -24.5207 H       
 103 H103           7.9755    12.2925   -28.4089 H       
 104 H104           1.3579    11.1847   -22.1735 H       
 105 H105           2.1725    10.5238   -20.7355 H       
 106 H106          11.0113    11.1758   -31.7833 H       
 107 H107          11.5392    10.3984   -34.0578 H       
 108 H108           9.7893    10.3729   -35.7890 H       
 109 H109           6.9804    11.9157   -32.9615 H       
 110 H110           8.9730    10.1426   -29.9449 H       
 111 H111           7.2898    10.4492   -30.4358 H       
 112 H112           9.5366    12.5149   -30.3958 H       
 113 H113           7.8534    12.8214   -30.8867 H       
 114 H114           4.0063    11.0243   -22.6459 H       
 115 H115           4.1904     8.7837   -24.5096 H       
 116 H116           6.2883     9.1542   -22.3267 H       
 117 H117           4.2705     8.1704   -21.5105 H       
 118 H118           7.1589     8.2947   -24.4706 H       
 119 H119           7.1497     7.0045   -23.2445 H       
 120 H120           5.8884     7.0484   -24.4996 H       
 121 H121           6.8180    10.7055   -37.4014 H       
 122 H122           8.4758    11.2958   -37.1342 H       
 123 H123           8.0358     9.6359   -36.6658 H       
 124 H124         -21.2473     6.4420   -10.8785 H       
 125 H125          -7.9954     7.9119   -16.1762 H       
 126 H126          -8.8100     8.5728   -17.6142 H       
 127 H127          -7.4319    10.6277   -17.4504 H       
 128 H128          -6.6173     9.9667   -16.0124 H       
 129 H129          -5.7980     8.0511   -17.3570 H       
 130 H130          -6.6126     8.7121   -18.7950 H       
 131 H131          -5.2344    10.7669   -18.6312 H       
 132 H132          -4.4198    10.1060   -17.1932 H       
 133 H133          -3.6006     8.1904   -18.5378 H       
 134 H134          -4.4151     8.8513   -19.9758 H       
 135 H135          -3.0370    10.9062   -19.8120 H       
 136 H136          -2.2224    10.2453   -18.3740 H       
 137 H137          -2.2177     8.9906   -21.1565 H       
 138 H138          -1.4031     8.3297   -19.7185 H       
@<TRIPOS>BOND
   1    1    2 ar
   2    1    6 ar
   3    1   65 1
   4    2    3 ar
   5    2    7 1
   6    3    4 ar
   7    3   66 1
   8    4    5 ar
   9    4   67 1
  10    5    6 ar
  11    5   68 1
  12    6   69 1
  13    7    8 1
  14    7   70 1
  15    7   71 1
  16    8    9 1
  17    8   55 1
  18    8   72 1
  19    9   10 am
  20    9   73 1
  21   10   11 1
  22   10   12 2
  23   11   13 1
  24   11   14 1
  25   11   74 1
  26   13   18 am
  27   13   75 1
  28   14   15 1
  29   14   76 1
  30   14   77 1
  31   15   16 am
  32   15   17 2
  33   16   78 1
  34   16   79 1
  35   18   19 2
  36   18   20 1
  37   20   21 1
  38   20   80 1
  39   20   81 1
  40   21   22 1
  41   21   82 1
  42   21   83 1
  43   22   23 1
  44   22   84 1
  45   22   85 1
  46   23   58 1
  47   23   86 1
  48   23   87 1
  49   24   25 1
  50   24   64 1
  51   24   88 1
  52   24   89 1
  53   25   39 1
  54   25   90 1
  55   25   91 1
  56   26   27 2
  57   26   48 am
  58   26   39 1
  59   28   29 am
  60   28   30 2
  61   28   49 1
  62   29   31 1
  63   29   92 1
  64   31   32 1
  65   31   33 1
  66   31   93 1
  67   32   34 1
  68   32   94 1
  69   32   95 1
  70   33   37 2
  71   33   38 am
  72   34   35 1
  73   34   36 1
  74   34   96 1
  75   35   97 1
  76   35   98 1
  77   35   99 1
  78   36  100 1
  79   36  101 1
  80   36  102 1
  81   38   46 1
  82   38  103 1
  83   39  104 1
  84   39  105 1
  85   40   41 ar
  86   40   45 ar
  87   40  106 1
  88   41   42 ar
  89   41  107 1
  90   42   43 ar
  91   42  108 1
  92   43   44 ar
  93   43   53 1
  94   44   45 ar
  95   44  109 1
  96   45   47 1
  97   46   47 1
  98   46  110 1
  99   46  111 1
 100   47  112 1
 101   47  113 1
 102   48   49 1
 103   48  114 1
 104   49   50 1
 105   49  115 1
 106   50   51 1
 107   50   52 1
 108   50  116 1
 109   51  117 1
 110   52  118 1
 111   52  119 1
 112   52  120 1
 113   53   54 1
 114   54  121 1
 115   54  122 1
 116   54  123 1
 117   55   56 2
 118   55   57 1
 119   57  124 1
 120   58   59 1
 121   58  125 1
 122   58  126 1
 123   59   60 1
 124   59  127 1
 125   59  128 1
 126   60   61 1
 127   60  129 1
 128   60  130 1
 129   61   62 1
 130   61  131 1
 131   61  132 1
 132   62   63 1
 133   62  133 1
 134   62  134 1
 135   63   64 1
 136   63  135 1
 137   63  136 1
 138   64  137 1
 139   64  138 1

#	End of record

