#	Name: ASD03430540
#	Creating user name:	WinNT
#	Creation time:	15. 06. 2019 20:41

#	Modifying user name:	WinNT
#	Modification time:	15. 06. 2019 20:41

#	Program:	/corina/corina34_cracker 3.40 0067  02.08.2006

@<TRIPOS>MOLECULE
ASD03430540
  44   48    0    0    0
SMALL
NO_CHARGES


@<TRIPOS>ATOM
   1 N1            -0.0161     1.3395     0.0094 N.am    
   2 C2             0.0021    -0.0041     0.0020 C.2     
   3 C3             1.4548    -0.4298    -0.0141 C.3     
   4 C4             2.2197     0.8737    -0.0144 C.ar    
   5 C5             3.5641     1.1705    -0.0263 C.ar    
   6 C6             3.9795     2.4906    -0.0239 C.ar    
   7 C7             3.0415     3.5068    -0.0095 C.ar    
   8 C8             1.6940     3.2122     0.0024 C.ar    
   9 C9             1.2680     1.8853     0.0001 C.ar    
  10 O10           -0.9637    -0.7377     0.0076 O.2     
  11 C11           -1.2434     2.1395     0.0197 C.3     
  12 O12           -2.4671     1.6329     2.1849 O.3     
  13 C13           -1.6570     2.4066     1.4440 C.2     
  14 C14           -1.2770     3.4601     2.1891 C.2     
  15 C15           -1.8943     3.3122     3.4524 C.2     
  16 C16           -2.6146     2.1772     3.4038 C.2     
  17 C17           -3.4460     1.6122     4.5265 C.3     
  18 F18           -4.7477     2.1181     4.4431 F       
  19 F19           -3.4804     0.2173     4.4251 F       
  20 F20           -2.8818     1.9768     5.7537 F       
  21 O21            2.6031    -3.2251     4.7294 O.3     
  22 C22            1.8603    -2.3749     5.6231 C.3     
  23 O23            1.8127    -1.1119     4.9332 O.3     
  24 C24            1.9018    -1.4186     3.6050 C.ar    
  25 C25            2.3878    -2.7181     3.4804 C.ar    
  26 C26            1.6008    -0.6821     2.4716 C.ar    
  27 C27            1.7830    -1.2343     1.2172 C.ar    
  28 C28            2.2668    -2.5276     1.0907 C.ar    
  29 C29            2.5693    -3.2692     2.2230 C.ar    
  30 O30            2.4444    -3.0690    -0.1439 O.3     
  31 F31            0.5693    -2.8767     5.8194 F       
  32 F32            2.5288    -2.2427     6.8449 F       
  33 H33            1.6751    -1.0021    -0.9153 H       
  34 H34            4.2935     0.3741    -0.0372 H       
  35 H35            5.0333     2.7266    -0.0329 H       
  36 H36            3.3659     4.5370    -0.0072 H       
  37 H37            0.9677     4.0114     0.0136 H       
  38 H38           -1.0644     3.0860    -0.4902 H       
  39 H39           -2.0364     1.5949    -0.4929 H       
  40 H40           -0.6250     4.2642     1.8815 H       
  41 H41           -1.8045     3.9819     4.2950 H       
  42 H42            1.2240     0.3255     2.5676 H       
  43 H43            2.9464    -4.2764     2.1241 H       
  44 H44            3.3224    -2.9147    -0.5185 H       
@<TRIPOS>BOND
   1    1    2 am
   2    1    9 1
   3    1   11 1
   4    2    3 1
   5    2   10 2
   6    3    4 1
   7    3   27 1
   8    3   33 1
   9    4    5 ar
  10    4    9 ar
  11    5    6 ar
  12    5   34 1
  13    6    7 ar
  14    6   35 1
  15    7    8 ar
  16    7   36 1
  17    8    9 ar
  18    8   37 1
  19   11   13 1
  20   11   38 1
  21   11   39 1
  22   12   13 1
  23   12   16 1
  24   13   14 2
  25   14   15 1
  26   14   40 1
  27   15   16 2
  28   15   41 1
  29   16   17 1
  30   17   18 1
  31   17   19 1
  32   17   20 1
  33   21   22 1
  34   21   25 1
  35   22   23 1
  36   22   31 1
  37   22   32 1
  38   23   24 1
  39   24   25 ar
  40   24   26 ar
  41   25   29 ar
  42   26   27 ar
  43   26   42 1
  44   27   28 ar
  45   28   29 ar
  46   28   30 1
  47   29   43 1
  48   30   44 1

#	End of record

