#	Name: ASD01209159
#	Creating user name:	WinNT
#	Creation time:	15. 06. 2019 19:11

#	Modifying user name:	WinNT
#	Modification time:	15. 06. 2019 19:11

#	Program:	/corina/corina34_cracker 3.40 0067  02.08.2006

@<TRIPOS>MOLECULE
ASD01209159
  69   71    0    0    0
SMALL
NO_CHARGES


@<TRIPOS>ATOM
   1 O1             0.8956     3.1600     1.1370 O.3     
   2 O2             2.8267     4.5524     2.2524 O.3     
   3 C3             0.3236     5.6876    -9.2906 C.ar    
   4 C4             1.6228     6.1316    -9.4875 C.ar    
   5 C5             2.4428     6.3952    -8.3993 C.ar    
   6 C6             1.9660     6.2165    -7.1112 C.ar    
   7 C7             0.6595     5.7699    -6.9087 C.ar    
   8 C8            -0.1628     5.5108    -8.0056 C.ar    
   9 O9             3.7152     6.8292    -8.5977 O.3     
  10 C10            4.7260     5.9348    -8.4407 C.ar    
  11 C11            0.1466     5.5768    -5.5358 C.2     
  12 N12            0.9411     5.8322    -4.4775 N.am    
  13 O13           -0.9918     5.1878    -5.3614 O.2     
  14 C14            0.4591     5.6508    -3.1875 C.2     
  15 P15            2.0062     4.2992     0.8905 P.3     
  16 O16            2.9376     3.8585    -0.1719 O.2     
  17 C17            1.1875     5.8453     0.3779 C.3     
  18 N18            1.1377     5.8664    -2.1041 N.2     
  19 S19           -1.1177     5.1176    -2.7972 S.3     
  20 C20           -0.7380     5.2181    -1.0798 C.2     
  21 C21            0.5216     5.6419    -0.9586 C.2     
  22 C22            1.2262     1.8049     1.4475 C.3     
  23 C23           -0.0591     0.9926     1.6181 C.3     
  24 C24            3.6613     3.5607     2.8541 C.3     
  25 C25            4.2885     4.1274     4.1293 C.3     
  26 O26           -0.4752     5.4310   -10.3598 O.3     
  27 C27           -1.8363     5.0927   -10.0864 C.3     
  28 C28            6.0443     6.3440    -8.5824 C.ar    
  29 C29           -2.7023     5.4436   -11.2979 C.3     
  30 C30           -1.9418     3.5932    -9.8012 C.3     
  31 C31            7.0701     5.4329    -8.4218 C.ar    
  32 C32            6.7842     4.1142    -8.1200 C.ar    
  33 C33            5.4714     3.7038    -7.9783 C.ar    
  34 C34            4.4421     4.6120    -8.1327 C.ar    
  35 S35            8.0950     2.9544    -7.9164 S.o2    
  36 O36            7.5071     1.7012    -8.2373 O.2     
  37 O37            9.1576     3.4862    -8.6957 O.2     
  38 C38            8.4994     3.0341    -6.1498 C.3     
  39 H39            1.9976     6.2724   -10.4906 H       
  40 H40            2.6048     6.4215    -6.2648 H       
  41 H41           -1.1746     5.1650    -7.8533 H       
  42 H42            1.8494     6.1426    -4.6167 H       
  43 H43            0.4377     6.1223     1.1190 H       
  44 H44            1.9294     6.6397     0.2970 H       
  45 H45           -1.4086     4.9814    -0.2670 H       
  46 H46            1.8193     1.3808     0.6373 H       
  47 H47            1.8010     1.7742     2.3732 H       
  48 H48           -0.6338     1.0233     0.6925 H       
  49 H49            0.1932    -0.0410     1.8550 H       
  50 H50           -0.6521     1.4167     2.4283 H       
  51 H51            3.0629     2.6840     3.1020 H       
  52 H52            4.4494     3.2772     2.1565 H       
  53 H53            4.8869     5.0041     3.8814 H       
  54 H54            3.5004     4.4109     4.8269 H       
  55 H55            4.9251     3.3709     4.5883 H       
  56 H56           -2.1825     5.6529    -9.2178 H       
  57 H57            6.2682     7.3739    -8.8184 H       
  58 H58           -2.3562     4.8833   -12.1664 H       
  59 H59           -3.7406     5.1856   -11.0893 H       
  60 H60           -2.6272     6.5118   -11.5010 H       
  61 H61           -1.5956     3.0329   -10.6698 H       
  62 H62           -1.3249     3.3432    -8.9381 H       
  63 H63           -2.9801     3.3352    -9.5926 H       
  64 H64            8.0963     5.7508    -8.5323 H       
  65 H65            5.2507     2.6731    -7.7429 H       
  66 H66            3.4169     4.2910    -8.0219 H       
  67 H67            7.6215     2.7629    -5.5635 H       
  68 H68            9.3109     2.3399    -5.9312 H       
  69 H69            8.8090     4.0472    -5.8933 H       
@<TRIPOS>BOND
   1    1   22 1
   2    1   15 1
   3    2   24 1
   4    2   15 1
   5    3    4 ar
   6    3   26 1
   7    3    8 ar
   8    4    5 ar
   9    4   39 1
  10    5    6 ar
  11    5    9 1
  12    6    7 ar
  13    6   40 1
  14    7    8 ar
  15    7   11 1
  16    8   41 1
  17    9   10 1
  18   10   28 ar
  19   10   34 ar
  20   11   12 am
  21   11   13 2
  22   12   14 1
  23   12   42 1
  24   14   18 2
  25   14   19 1
  26   15   16 2
  27   15   17 1
  28   17   21 1
  29   17   43 1
  30   17   44 1
  31   18   21 1
  32   19   20 1
  33   20   21 2
  34   20   45 1
  35   22   23 1
  36   22   46 1
  37   22   47 1
  38   23   48 1
  39   23   49 1
  40   23   50 1
  41   24   25 1
  42   24   51 1
  43   24   52 1
  44   25   53 1
  45   25   54 1
  46   25   55 1
  47   26   27 1
  48   27   29 1
  49   27   30 1
  50   27   56 1
  51   28   31 ar
  52   28   57 1
  53   29   58 1
  54   29   59 1
  55   29   60 1
  56   30   61 1
  57   30   62 1
  58   30   63 1
  59   31   32 ar
  60   31   64 1
  61   32   33 ar
  62   32   35 1
  63   33   34 ar
  64   33   65 1
  65   34   66 1
  66   35   36 2
  67   35   37 2
  68   35   38 1
  69   38   67 1
  70   38   68 1
  71   38   69 1

#	End of record

