#	Name: ASD06170192
#	Creating user name:	WinNT
#	Creation time:	15. 06. 2019 21:05

#	Modifying user name:	WinNT
#	Modification time:	15. 06. 2019 21:05

#	Program:	/corina/corina34_cracker 3.40 0067  02.08.2006

@<TRIPOS>MOLECULE
ASD06170192
  92   98    0    0    0
SMALL
NO_CHARGES


@<TRIPOS>ATOM
   1 C1             0.1870     1.0579    -0.0651 C.2     
   2 C2            -0.0048    -0.1316     0.6848 C.2     
   3 C3             1.0640    -0.6542     1.4059 C.2     
   4 C4             2.2989     0.0152     1.3666 C.2     
   5 C5             2.4289     1.1677     0.6210 C.2     
   6 N6             1.3874     1.6657    -0.0741 N.am    
   7 C7            -1.3142    -0.8016     0.6999 C.2     
   8 O8            -1.4404    -1.8781     1.2525 O.2     
   9 N9            -2.3742    -0.2230     0.1015 N.am    
  10 C10            1.5657     2.8925    -0.8548 C.3     
  11 C11            1.2433     4.0869     0.0057 C.ar    
  12 C12            2.2390     4.6912     0.7503 C.ar    
  13 C13            1.9433     5.7868     1.5396 C.ar    
  14 C14            0.6521     6.2784     1.5841 C.ar    
  15 C15           -0.3434     5.6746     0.8389 C.ar    
  16 C16           -0.0468     4.5817     0.0461 C.ar    
  17 C17            3.4588    -0.5161     2.1252 C.ar    
  18 C18            3.4238    -0.5578     3.5174 C.ar    
  19 C19            4.5051    -1.0528     4.2178 C.ar    
  20 C20            5.6222    -1.5070     3.5401 C.ar    
  21 C21            5.6624    -1.4674     2.1581 C.ar    
  22 C22            4.5842    -0.9801     1.4474 C.ar    
  23 O23           -0.7367     1.5273    -0.7069 O.2     
  24 C24           -3.5894    -0.9124     0.0108 C.ar    
  25 C25           -4.7895    -0.2158     0.0736 C.ar    
  26 C26           -5.9886    -0.8973    -0.0159 C.ar    
  27 C27           -5.9925    -2.2787    -0.1687 C.ar    
  28 C28           -4.7940    -2.9730    -0.2307 C.ar    
  29 C29           -3.5951    -2.2917    -0.1475 C.ar    
  30 O30           -7.1722    -2.9496    -0.2568 O.3     
  31 N31           -9.0215    -3.0962    -3.9405 N.ar    
  32 C32           -7.8478    -2.5229    -3.8135 C.ar    
  33 C33           -7.1947    -2.4542    -2.5894 C.ar    
  34 C34           -7.7863    -3.0014    -1.4644 C.ar    
  35 C35           -9.0500    -3.6160    -1.6130 C.ar    
  36 C36           -9.7122    -4.1922    -0.5186 C.ar    
  37 C37          -10.9323    -4.7771    -0.6988 C.ar    
  38 C38          -11.5301    -4.8078    -1.9668 C.ar    
  39 C39          -10.9076    -4.2547    -3.0485 C.ar    
  40 C40           -9.6512    -3.6455    -2.8949 C.ar    
  41 O41          -12.7452    -5.3963    -2.1210 O.3     
  42 C42          -13.3037    -5.3965    -3.4363 C.3     
  43 C43          -14.6634    -6.0976    -3.4129 C.3     
  44 C44          -15.2614    -6.0979    -4.8212 C.3     
  45 N45          -16.5669    -6.7710    -4.7988 N.3     
  46 C46          -17.2773    -6.5854    -6.0724 C.3     
  47 C47          -18.6026    -7.3507    -6.0275 C.3     
  48 O48          -19.3703    -6.8993    -4.9085 O.3     
  49 C49          -18.7087    -7.0657    -3.6516 C.3     
  50 C50          -17.3845    -6.2975    -3.6724 C.3     
  51 O51          -11.5741    -5.3359     0.3617 O.3     
  52 C52          -10.9128    -5.2727     1.6270 C.3     
  53 F53           -7.1565    -0.2209     0.0454 F       
  54 H54            0.9467    -1.5578     1.9857 H       
  55 H55            3.3798     1.6789     0.5936 H       
  56 H56           -2.2951     0.6711    -0.2664 H       
  57 H57            2.5986     2.9589    -1.1964 H       
  58 H58            0.8985     2.8749    -1.7166 H       
  59 H59            3.2478     4.3072     0.7155 H       
  60 H60            2.7210     6.2585     2.1219 H       
  61 H61            0.4209     7.1339     2.2014 H       
  62 H62           -1.3523     6.0584     0.8739 H       
  63 H63           -0.8238     4.1122    -0.5390 H       
  64 H64            2.5522    -0.2032     4.0475 H       
  65 H65            4.4792    -1.0853     5.2970 H       
  66 H66            6.4661    -1.8935     4.0921 H       
  67 H67            6.5373    -1.8226     1.6339 H       
  68 H68            4.6147    -0.9541     0.3682 H       
  69 H69           -4.7856     0.8576     0.1926 H       
  70 H70           -4.7976    -4.0465    -0.3490 H       
  71 H71           -2.6619    -2.8328    -0.2007 H       
  72 H72           -7.3765    -2.0929    -4.6849 H       
  73 H73           -6.2290    -1.9762    -2.5161 H       
  74 H74           -9.2588    -4.1733     0.4614 H       
  75 H75          -11.3794    -4.2858    -4.0194 H       
  76 H76          -13.4305    -4.3691    -3.7774 H       
  77 H77          -12.6342    -5.9247    -4.1152 H       
  78 H78          -14.5366    -7.1251    -3.0718 H       
  79 H79          -15.3329    -5.5694    -2.7340 H       
  80 H80          -15.3882    -5.0704    -5.1623 H       
  81 H81          -14.5919    -6.6261    -5.5001 H       
  82 H82          -17.4746    -5.5248    -6.2279 H       
  83 H83          -16.6648    -6.9660    -6.8897 H       
  84 H84          -19.1587    -7.1696    -6.9473 H       
  85 H85          -18.4036    -8.4175    -5.9258 H       
  86 H86          -19.3415    -6.6785    -2.8531 H       
  87 H87          -18.5127    -8.1242    -3.4808 H       
  88 H88          -16.8501    -6.4680    -2.7378 H       
  89 H89          -17.5835    -5.2323    -3.7896 H       
  90 H90           -9.9535    -5.7860     1.5616 H       
  91 H91          -10.7493    -4.2302     1.8998 H       
  92 H92          -11.5314    -5.7539     2.3846 H       
@<TRIPOS>BOND
   1    1    2 1
   2    1    6 am
   3    1   23 2
   4    2    3 2
   5    2    7 1
   6    3    4 1
   7    3   54 1
   8    4    5 2
   9    4   17 1
  10    5    6 1
  11    5   55 1
  12    6   10 1
  13    7    8 2
  14    7    9 am
  15    9   24 1
  16    9   56 1
  17   10   11 1
  18   10   57 1
  19   10   58 1
  20   11   12 ar
  21   11   16 ar
  22   12   13 ar
  23   12   59 1
  24   13   14 ar
  25   13   60 1
  26   14   15 ar
  27   14   61 1
  28   15   16 ar
  29   15   62 1
  30   16   63 1
  31   17   18 ar
  32   17   22 ar
  33   18   19 ar
  34   18   64 1
  35   19   20 ar
  36   19   65 1
  37   20   21 ar
  38   20   66 1
  39   21   22 ar
  40   21   67 1
  41   22   68 1
  42   24   25 ar
  43   24   29 ar
  44   25   26 ar
  45   25   69 1
  46   26   27 ar
  47   26   53 1
  48   27   28 ar
  49   27   30 1
  50   28   29 ar
  51   28   70 1
  52   29   71 1
  53   30   34 1
  54   31   32 ar
  55   31   40 ar
  56   32   33 ar
  57   32   72 1
  58   33   34 ar
  59   33   73 1
  60   34   35 ar
  61   35   36 ar
  62   35   40 ar
  63   36   37 ar
  64   36   74 1
  65   37   38 ar
  66   37   51 1
  67   38   39 ar
  68   38   41 1
  69   39   40 ar
  70   39   75 1
  71   41   42 1
  72   42   43 1
  73   42   76 1
  74   42   77 1
  75   43   44 1
  76   43   78 1
  77   43   79 1
  78   44   45 1
  79   44   80 1
  80   44   81 1
  81   45   46 1
  82   45   50 1
  83   46   47 1
  84   46   82 1
  85   46   83 1
  86   47   48 1
  87   47   84 1
  88   47   85 1
  89   48   49 1
  90   49   50 1
  91   49   86 1
  92   49   87 1
  93   50   88 1
  94   50   89 1
  95   51   52 1
  96   52   90 1
  97   52   91 1
  98   52   92 1

#	End of record

