#	Name: ASD03430217
#	Creating user name:	WinNT
#	Creation time:	15. 06. 2019 20:40

#	Modifying user name:	WinNT
#	Modification time:	15. 06. 2019 20:40

#	Program:	/corina/corina34_cracker 3.40 0067  02.08.2006

@<TRIPOS>MOLECULE
ASD03430217
  67   73    0    0    0
SMALL
NO_CHARGES


@<TRIPOS>ATOM
   1 C1            -0.0257     0.7847     1.5773 C.ar    
   2 C2            -0.0742    -0.5767     1.3738 C.ar    
   3 C3             1.0777    -1.3305     1.4567 C.ar    
   4 C4             2.2953    -0.7241     1.7547 C.ar    
   5 C5             2.3375     0.6515     1.9483 C.ar    
   6 C6             1.1804     1.4159     1.8584 C.ar    
   7 O7             3.2995    -1.6438     1.8221 O.3     
   8 C8             1.3608    -2.7967     1.2719 C.3     
   9 C9             2.8899    -2.8463     1.1435 C.3     
  10 C10           -0.0018    -4.5595     1.8693 C.ar    
  11 C11            0.8698    -3.6247     2.4225 C.ar    
  12 C12            0.6812    -3.3605     0.0575 C.2     
  13 N13           -0.0894    -4.3798     0.4870 N.am    
  14 O14            0.8019    -2.9744    -1.0859 O.2     
  15 C15            1.1138    -3.6107     3.7772 C.ar    
  16 C16            0.4923    -4.5305     4.6034 C.ar    
  17 C17           -0.3752    -5.4630     4.0652 C.ar    
  18 C18           -0.6235    -5.4810     2.7083 C.ar    
  19 C19           -0.9214    -5.2035    -0.3937 C.3     
  20 C20           -1.0983     1.8560     1.5720 C.3     
  21 C21           -0.3752     3.0364     2.2629 C.3     
  22 O22            1.0104     2.7604     1.9962 O.3     
  23 C23           -2.3077    -4.6172    -0.4680 C.ar    
  24 C24           -3.2872    -5.2341    -1.2484 C.ar    
  25 C25           -2.9687    -6.4638    -2.0042 C.2     
  26 O26           -1.8316    -6.8937    -2.0143 O.2     
  27 C27           -2.6131    -3.4731     0.2393 C.ar    
  28 C28           -3.8858    -2.9337     0.1725 C.ar    
  29 C29           -4.8596    -3.5371    -0.6030 C.ar    
  30 C30           -4.5688    -4.6848    -1.3113 C.ar    
  31 N31           -3.9389    -7.1084    -2.6822 N.am    
  32 C32           -3.6594    -8.3223    -3.3179 C.ar    
  33 C33           -4.6212    -9.3234    -3.3602 C.ar    
  34 C34           -4.3420   -10.5210    -3.9888 C.ar    
  35 C35           -2.4215    -8.5272    -3.9134 C.ar    
  36 C36           -2.1487    -9.7271    -4.5404 C.ar    
  37 C37           -3.1063   -10.7241    -4.5754 C.ar    
  38 C38           -2.8051   -12.0322    -5.2604 C.3     
  39 C39           -2.1942   -13.0072    -4.2520 C.3     
  40 H40           -1.0162    -1.0548     1.1493 H       
  41 H41            3.2790     1.1312     2.1715 H       
  42 H42            3.1914    -2.8217     0.0963 H       
  43 H43            3.2918    -3.7282     1.6424 H       
  44 H44            1.7915    -2.8813     4.1957 H       
  45 H45            0.6847    -4.5203     5.6661 H       
  46 H46           -0.8605    -6.1808     4.7100 H       
  47 H47           -1.3022    -6.2125     2.2952 H       
  48 H48           -0.4826    -5.2264    -1.3912 H       
  49 H49           -0.9765    -6.2175     0.0024 H       
  50 H50           -1.3833     2.1168     0.5527 H       
  51 H51           -1.9673     1.5401     2.1491 H       
  52 H52           -0.6726     3.9856     1.8173 H       
  53 H53           -0.5699     3.0341     3.3354 H       
  54 H54           -1.8575    -2.9974     0.8469 H       
  55 H55           -4.1198    -2.0380     0.7286 H       
  56 H56           -5.8510    -3.1112    -0.6505 H       
  57 H57           -5.3299    -5.1549    -1.9165 H       
  58 H58           -4.8310    -6.7305    -2.7291 H       
  59 H59           -5.5862    -9.1657    -2.9016 H       
  60 H60           -5.0894   -11.2999    -4.0220 H       
  61 H61           -1.6732    -7.7489    -3.8865 H       
  62 H62           -1.1863    -9.8871    -5.0037 H       
  63 H63           -3.7274   -12.4536    -5.6604 H       
  64 H64           -2.1003   -11.8622    -6.0744 H       
  65 H65           -2.8990   -13.1772    -3.4381 H       
  66 H66           -1.9764   -13.9534    -4.7475 H       
  67 H67           -1.2720   -12.5858    -3.8520 H       
@<TRIPOS>BOND
   1    1    2 ar
   2    1    6 ar
   3    1   20 1
   4    2    3 ar
   5    2   40 1
   6    3    4 ar
   7    3    8 1
   8    4    5 ar
   9    4    7 1
  10    5    6 ar
  11    5   41 1
  12    6   22 1
  13    7    9 1
  14    8    9 1
  15    8   11 1
  16    8   12 1
  17    9   42 1
  18    9   43 1
  19   10   11 ar
  20   10   13 1
  21   10   18 ar
  22   11   15 ar
  23   12   13 am
  24   12   14 2
  25   13   19 1
  26   15   16 ar
  27   15   44 1
  28   16   17 ar
  29   16   45 1
  30   17   18 ar
  31   17   46 1
  32   18   47 1
  33   19   23 1
  34   19   48 1
  35   19   49 1
  36   20   21 1
  37   20   50 1
  38   20   51 1
  39   21   22 1
  40   21   52 1
  41   21   53 1
  42   23   24 ar
  43   23   27 ar
  44   24   25 1
  45   24   30 ar
  46   25   26 2
  47   25   31 am
  48   27   28 ar
  49   27   54 1
  50   28   29 ar
  51   28   55 1
  52   29   30 ar
  53   29   56 1
  54   30   57 1
  55   31   32 1
  56   31   58 1
  57   32   33 ar
  58   32   35 ar
  59   33   34 ar
  60   33   59 1
  61   34   37 ar
  62   34   60 1
  63   35   36 ar
  64   35   61 1
  65   36   37 ar
  66   36   62 1
  67   37   38 1
  68   38   39 1
  69   38   63 1
  70   38   64 1
  71   39   65 1
  72   39   66 1
  73   39   67 1

#	End of record

