#	Name: ASD01883340
#	Creating user name:	WinNT
#	Creation time:	15. 06. 2019 19:46

#	Modifying user name:	WinNT
#	Modification time:	15. 06. 2019 19:46

#	Program:	/corina/corina34_cracker 3.40 0067  02.08.2006

@<TRIPOS>MOLECULE
ASD01883340
  42   45    0    0    0
SMALL
NO_CHARGES


@<TRIPOS>ATOM
   1 N1            -0.0162     1.3418     0.0094 N.am    
   2 C2             0.0021    -0.0041     0.0020 C.2     
   3 C3            -1.2147    -0.7262     0.0102 C.2     
   4 C4            -2.4239    -0.0108     0.0261 C.2     
   5 C5            -2.3777     1.3956     0.0332 C.2     
   6 C6            -1.1861     2.0320     0.0299 C.2     
   7 O7             1.0658    -0.6002    -0.0122 O.2     
   8 C8            -1.2137    -2.1582     0.0021 C.1     
   9 N9            -1.2130    -3.2942    -0.0044 N.1     
  10 N10           -3.6309    -0.6732     0.0341 N.pl3   
  11 C11            1.2510     2.0769     0.0013 C.3     
  12 C12            1.6783     2.3406    -1.4440 C.3     
  13 C13            2.9231     3.2019    -1.6666 C.3     
  14 C14            2.9793     1.6949    -1.9250 C.3     
  15 C15           -4.8833     0.0867     0.0506 C.3     
  16 C16           -6.0061    -0.3817    -0.8773 C.3     
  17 C17           -6.1196    -0.6016     0.6326 C.3     
  18 C18           -5.9557    -2.0094     1.1450 C.ar    
  19 C19           -6.2229    -2.2980     2.4702 C.ar    
  20 C20           -6.0726    -3.5893     2.9402 C.ar    
  21 C21           -5.6555    -4.5920     2.0849 C.ar    
  22 C22           -5.3892    -4.3035     0.7595 C.ar    
  23 C23           -5.5437    -3.0131     0.2884 C.ar    
  24 H24           -3.2946     1.9661     0.0450 H       
  25 H25           -1.1631     3.1117     0.0354 H       
  26 H26           -3.6520    -1.6429     0.0288 H       
  27 H27            1.1236     3.0263     0.5214 H       
  28 H28            2.0167     1.4867     0.5046 H       
  29 H29            0.8661     2.4342    -2.1648 H       
  30 H30            2.9300     3.8618    -2.5341 H       
  31 H31            3.4376     3.5806    -0.7835 H       
  32 H32            3.5308     1.0822    -1.2118 H       
  33 H33            3.0232     1.3634    -2.9624 H       
  34 H34           -4.7802     1.1594     0.2143 H       
  35 H35           -6.6419     0.3828    -1.3237 H       
  36 H36           -5.8129    -1.2552    -1.5000 H       
  37 H37           -6.8301     0.0182     1.1795 H       
  38 H38           -6.5488    -1.5146     3.1384 H       
  39 H39           -6.2806    -3.8147     3.9757 H       
  40 H40           -5.5373    -5.6007     2.4523 H       
  41 H41           -5.0630    -5.0868     0.0913 H       
  42 H42           -5.3356    -2.7877    -0.7471 H       
@<TRIPOS>BOND
   1    1    2 am
   2    1   11 1
   3    1    6 1
   4    2    3 1
   5    2    7 2
   6    3    4 2
   7    3    8 1
   8    4    5 1
   9    4   10 1
  10    5    6 2
  11    5   24 1
  12    6   25 1
  13    8    9 3
  14   10   15 1
  15   10   26 1
  16   11   12 1
  17   11   27 1
  18   11   28 1
  19   12   13 1
  20   12   14 1
  21   12   29 1
  22   13   14 1
  23   13   30 1
  24   13   31 1
  25   14   32 1
  26   14   33 1
  27   15   16 1
  28   15   17 1
  29   15   34 1
  30   16   17 1
  31   16   35 1
  32   16   36 1
  33   17   18 1
  34   17   37 1
  35   18   19 ar
  36   18   23 ar
  37   19   20 ar
  38   19   38 1
  39   20   21 ar
  40   20   39 1
  41   21   22 ar
  42   21   40 1
  43   22   23 ar
  44   22   41 1
  45   23   42 1

#	End of record

