#	Name: ASD01948023
#	Creating user name:	WinNT
#	Creation time:	15. 06. 2019 20:13

#	Modifying user name:	WinNT
#	Modification time:	15. 06. 2019 20:13

#	Program:	/corina/corina34_cracker 3.40 0067  02.08.2006

@<TRIPOS>MOLECULE
ASD01948023
  60   63    0    0    0
SMALL
NO_CHARGES


@<TRIPOS>ATOM
   1 C1            -1.1425     1.6940    -0.2595 C.2     
   2 C2            -0.9339     0.4596    -0.8240 C.2     
   3 C3             0.3391    -0.1220    -0.7970 C.2     
   4 C4             1.3837     0.5681    -0.1921 C.2     
   5 C5             1.1318     1.8166     0.3686 C.2     
   6 N6            -0.1062     2.3532     0.3279 N.am    
   7 N7            -2.3182     2.4126    -0.2003 N.pl3   
   8 C8            -2.0776     3.6810     0.4952 C.3     
   9 C9            -0.5831     3.6439     0.8530 C.3     
  10 O10            2.0407     2.4335     0.9037 O.2     
  11 N11           -2.0596    -0.2590    -1.4628 N.pl3   
  12 O12           -2.1989    -0.2202    -2.6722 O.2     
  13 O13           -2.8464    -0.8890    -0.7790 O.2     
  14 C14            2.7673    -0.0272    -0.1438 C.3     
  15 N15            0.5550    -1.3670    -1.3644 N.pl3   
  16 C16           -0.0962    -2.4930    -0.8491 C.ar    
  17 C17            0.0047    -3.7170    -1.5028 C.ar    
  18 C18           -0.6400    -4.8271    -0.9897 C.ar    
  19 C19           -1.3843    -4.7209     0.1713 C.ar    
  20 C20           -1.4863    -3.5056     0.8222 C.ar    
  21 C21           -0.8396    -2.3930     0.3187 C.ar    
  22 Si22          -2.2544    -6.2231     0.8610 Si      
  23 C23           -1.1183    -7.1122     2.0398 C.3     
  24 C24           -3.7931    -5.6889     1.7654 C.3     
  25 C25           -2.7197    -7.3665    -0.5344 C.3     
  26 F26            0.7310    -3.8204    -2.6372 F       
  27 C27           -3.6059     1.9770    -0.7466 C.3     
  28 C28           -3.9124     2.7612    -1.9965 C.ar    
  29 C29           -3.3677     2.3737    -3.2065 C.ar    
  30 C30           -3.6488     3.0931    -4.3530 C.ar    
  31 C31           -4.4749     4.1996    -4.2895 C.ar    
  32 C32           -5.0203     4.5865    -3.0797 C.ar    
  33 C33           -4.7427     3.8646    -1.9340 C.ar    
  34 H34           -2.2877     4.5228    -0.1645 H       
  35 H35           -2.6863     3.7419     1.3974 H       
  36 H36           -0.4481     3.6877     1.9337 H       
  37 H37           -0.0580     4.4680     0.3700 H       
  38 H38            3.2946     0.2037    -1.0694 H       
  39 H39            3.3142     0.3927     0.7004 H       
  40 H40            2.6938    -1.1085    -0.0276 H       
  41 H41            1.1576    -1.4582    -2.1191 H       
  42 H42           -0.5627    -5.7780    -1.4960 H       
  43 H43           -2.0690    -3.4265     1.7281 H       
  44 H44           -0.9166    -1.4453     0.8309 H       
  45 H45           -0.8461    -6.4432     2.8562 H       
  46 H46           -1.6260    -7.9888     2.4422 H       
  47 H47           -0.2181    -7.4247     1.5106 H       
  48 H48           -4.4578    -5.1688     1.0757 H       
  49 H49           -4.3008    -6.5655     2.1679 H       
  50 H50           -3.5209    -5.0200     2.5818 H       
  51 H51           -1.8194    -7.6790    -1.0635 H       
  52 H52           -3.2274    -8.2431    -0.1320 H       
  53 H53           -3.3844    -6.8463    -1.2241 H       
  54 H54           -3.5580     0.9149    -0.9867 H       
  55 H55           -4.3900     2.1479    -0.0091 H       
  56 H56           -2.7223     1.5092    -3.2561 H       
  57 H57           -3.2228     2.7908    -5.2982 H       
  58 H58           -4.6940     4.7620    -5.1851 H       
  59 H59           -5.6654     5.4512    -3.0300 H       
  60 H60           -5.1717     4.1647    -0.9894 H       
@<TRIPOS>BOND
   1    1    2 2
   2    1    6 1
   3    1    7 1
   4    2    3 1
   5    2   11 1
   6    3    4 2
   7    3   15 1
   8    4    5 1
   9    4   14 1
  10    5    6 am
  11    5   10 2
  12    6    9 1
  13    7    8 1
  14    7   27 1
  15    8    9 1
  16    8   34 1
  17    8   35 1
  18    9   36 1
  19    9   37 1
  20   11   12 2
  21   11   13 2
  22   14   38 1
  23   14   39 1
  24   14   40 1
  25   15   16 1
  26   15   41 1
  27   16   17 ar
  28   16   21 ar
  29   17   18 ar
  30   17   26 1
  31   18   19 ar
  32   18   42 1
  33   19   20 ar
  34   19   22 1
  35   20   21 ar
  36   20   43 1
  37   21   44 1
  38   22   23 1
  39   22   24 1
  40   22   25 1
  41   23   45 1
  42   23   46 1
  43   23   47 1
  44   24   48 1
  45   24   49 1
  46   24   50 1
  47   25   51 1
  48   25   52 1
  49   25   53 1
  50   27   28 1
  51   27   54 1
  52   27   55 1
  53   28   29 ar
  54   28   33 ar
  55   29   30 ar
  56   29   56 1
  57   30   31 ar
  58   30   57 1
  59   31   32 ar
  60   31   58 1
  61   32   33 ar
  62   32   59 1
  63   33   60 1

#	End of record

