#	Name: ASD01884171
#	Creating user name:	WinNT
#	Creation time:	15. 06. 2019 19:47

#	Modifying user name:	WinNT
#	Modification time:	15. 06. 2019 19:47

#	Program:	/corina/corina34_cracker 3.40 0067  02.08.2006

@<TRIPOS>MOLECULE
ASD01884171
  59   63    0    0    0
SMALL
NO_CHARGES


@<TRIPOS>ATOM
   1 C1             0.0108     1.4805     0.0004 C.ar    
   2 C2            -0.1731     0.3987    -0.8578 C.ar    
   3 C3            -1.3717    -0.2828    -0.8541 C.ar    
   4 C4            -2.3920     0.1285     0.0203 C.ar    
   5 C5            -2.1227     1.2236     0.8472 C.ar    
   6 N6            -0.9630     1.8506     0.8230 N.ar    
   7 N7            -3.6525    -0.4149     0.1771 N.am    
   8 C8            -4.4783     0.1328     1.0741 C.2     
   9 S9            -3.5882     1.4770     1.8075 S.3     
  10 O10           -5.6133    -0.2210     1.3344 O.2     
  11 C11            1.2987     2.2161    -0.0007 C.ar    
  12 C12           -4.0753    -1.5669    -0.6232 C.3     
  13 C13           -3.7122    -2.8590     0.1113 C.3     
  14 C14           -4.1771    -4.1784    -0.5084 C.3     
  15 C15           -2.6980    -3.7900    -0.5561 C.3     
  16 F16           -2.1735    -3.3946    -1.7913 F       
  17 F17           -1.8189    -4.4908     0.2765 F       
  18 C18            1.3100     3.6065    -0.0942 C.ar    
  19 C19            2.5115     4.2858    -0.0943 C.ar    
  20 C20            3.6974     2.2092     0.0966 C.ar    
  21 C21            2.5022     1.5197     0.0976 C.ar    
  22 C22            3.7028     3.5892    -0.0023 C.ar    
  23 C23            4.9994     1.4578     0.2028 C.3     
  24 N24            5.4781     1.1150    -1.1431 N.3     
  25 C25            6.8512     0.5950    -1.0968 C.3     
  26 C26            7.2467     0.0822    -2.4857 C.3     
  27 N27            7.0219     1.1586    -3.4625 N.am    
  28 C28            5.7100     1.8234    -3.4758 C.3     
  29 C29            5.3750     2.2676    -2.0479 C.3     
  30 C30            7.9921     1.5255    -4.3230 C.2     
  31 C31            7.7013     2.5406    -5.3982 C.3     
  32 O32            9.0992     1.0388    -4.2321 O.2     
  33 C33            0.0128     4.3668    -0.1955 C.3     
  34 H34            0.6207     0.0950    -1.5242 H       
  35 H35           -1.5247    -1.1227    -1.5156 H       
  36 H36           -5.1537    -1.5267    -0.7764 H       
  37 H37           -3.5700    -1.5436    -1.5887 H       
  38 H38           -3.6950    -2.7924     1.1992 H       
  39 H39           -4.4652    -4.9800     0.1717 H       
  40 H40           -4.7415    -4.1259    -1.4394 H       
  41 H41            2.5215     5.3634    -0.1667 H       
  42 H42            2.4992     0.4424     0.1748 H       
  43 H43            4.6406     4.1248    -0.0034 H       
  44 H44            5.7394     2.0820     0.7036 H       
  45 H45            4.8458     0.5443     0.7774 H       
  46 H46            7.5318     1.3913    -0.7957 H       
  47 H47            6.9065    -0.2225    -0.3780 H       
  48 H48            8.2999    -0.1985    -2.4861 H       
  49 H49            6.6345    -0.7815    -2.7451 H       
  50 H50            5.7473     2.6939    -4.1308 H       
  51 H51            4.9501     1.1271    -3.8304 H       
  52 H52            4.3597     2.6632    -2.0188 H       
  53 H53            6.0761     3.0407    -1.7335 H       
  54 H54            6.6895     2.9255    -5.2704 H       
  55 H55            8.4143     3.3618    -5.3251 H       
  56 H56            7.7896     2.0687    -6.3768 H       
  57 H57           -0.3851     4.5414     0.8041 H       
  58 H58            0.1896     5.3229    -0.6883 H       
  59 H59           -0.7043     3.7862    -0.7757 H       
@<TRIPOS>BOND
   1    1    2 ar
   2    1   11 1
   3    1    6 ar
   4    2    3 ar
   5    2   34 1
   6    3    4 ar
   7    3   35 1
   8    4    5 ar
   9    4    7 1
  10    5    6 ar
  11    5    9 1
  12    7    8 am
  13    7   12 1
  14    8    9 1
  15    8   10 2
  16   11   18 ar
  17   11   21 ar
  18   12   13 1
  19   12   36 1
  20   12   37 1
  21   13   14 1
  22   13   15 1
  23   13   38 1
  24   14   15 1
  25   14   39 1
  26   14   40 1
  27   15   16 1
  28   15   17 1
  29   18   19 ar
  30   18   33 1
  31   19   22 ar
  32   19   41 1
  33   20   21 ar
  34   20   23 1
  35   20   22 ar
  36   21   42 1
  37   22   43 1
  38   23   24 1
  39   23   44 1
  40   23   45 1
  41   24   25 1
  42   24   29 1
  43   25   26 1
  44   25   46 1
  45   25   47 1
  46   26   27 1
  47   26   48 1
  48   26   49 1
  49   27   28 1
  50   27   30 am
  51   28   29 1
  52   28   50 1
  53   28   51 1
  54   29   52 1
  55   29   53 1
  56   30   31 1
  57   30   32 2
  58   31   54 1
  59   31   55 1
  60   31   56 1
  61   33   57 1
  62   33   58 1
  63   33   59 1

#	End of record

