#	Name: ASD01882130
#	Creating user name:	WinNT
#	Creation time:	15. 06. 2019 19:44

#	Modifying user name:	WinNT
#	Modification time:	15. 06. 2019 19:44

#	Program:	/corina/corina34_cracker 3.40 0067  02.08.2006

@<TRIPOS>MOLECULE
ASD01882130
  64   67    0    0    0
SMALL
NO_CHARGES


@<TRIPOS>ATOM
   1 C1            -0.8189     0.2250    -1.1858 C.2     
   2 N2            -0.9230    -1.0794    -1.4014 N.2     
   3 C3             0.1595    -1.8559    -1.5150 C.2     
   4 C4             1.4502    -1.2796    -1.4036 C.2     
   5 C5             1.5432     0.0487    -1.1843 C.2     
   6 N6             0.4039     0.7959    -1.0762 N.pl3   
   7 O7            -1.8233     1.1193    -1.0575 O.3     
   8 C8             0.2436     2.2409    -0.8409 C.3     
   9 C9            -1.2809     2.4479    -0.8300 C.3     
  10 O10            0.0373    -3.0550    -1.7131 O.2     
  11 C11           -1.6967     3.3961    -1.9565 C.3     
  12 O12           -3.1108     3.5967    -1.9126 O.3     
  13 C13           -3.6467     4.4191    -2.8525 C.ar    
  14 C14           -5.0131     4.6586    -2.8685 C.ar    
  15 C15           -5.5555     5.4950    -3.8249 C.ar    
  16 C16           -4.7377     6.0932    -4.7657 C.ar    
  17 C17           -3.3756     5.8558    -4.7522 C.ar    
  18 C18           -2.8276     5.0251    -3.7940 C.ar    
  19 C19           -5.3335     7.0076    -5.8107 C.3     
  20 C20           -4.7103     8.3961    -5.6715 C.3     
  21 C21           -5.3191     9.3522    -6.6959 C.3     
  22 C22           -5.1862     8.8114    -8.1106 C.3     
  23 C23           -5.5806     7.3554    -8.2909 C.3     
  24 C24           -5.0116     6.4574    -7.1981 C.3     
  25 C25           -7.1000     7.1929    -8.3696 C.3     
  26 C26           -4.9980     6.8732    -9.6389 C.3     
  27 C27           -6.7724     9.6607    -6.3404 C.3     
  28 C28           -4.5305    10.6781    -6.6198 C.3     
  29 C29            2.8946     0.7038    -1.0587 C.3     
  30 C30            3.3151     1.2697    -2.4166 C.3     
  31 H31            2.3375    -1.8890    -1.4919 H       
  32 H32            0.6765     2.5223     0.1190 H       
  33 H33            0.6993     2.8128    -1.6492 H       
  34 H34           -1.6092     2.8337     0.1352 H       
  35 H35           -1.1899     4.3530    -1.8316 H       
  36 H36           -1.4210     2.9615    -2.9174 H       
  37 H37           -5.6524     4.1913    -2.1341 H       
  38 H38           -6.6192     5.6815    -3.8380 H       
  39 H39           -2.7390     6.3237    -5.4885 H       
  40 H40           -1.7630     4.8438    -3.7808 H       
  41 H41           -6.4086     7.0553    -5.6612 H       
  42 H42           -4.8954     8.7767    -4.6653 H       
  43 H43           -3.6331     8.3279    -5.8336 H       
  44 H44           -5.8005     9.4297    -8.7829 H       
  45 H45           -4.1428     8.9374    -8.4385 H       
  46 H46           -3.9267     6.3873    -7.3148 H       
  47 H47           -5.4359     5.4543    -7.2952 H       
  48 H48           -7.4963     7.8518    -9.1422 H       
  49 H49           -7.3425     6.1588    -8.6145 H       
  50 H50           -7.5434     7.4523    -7.4083 H       
  51 H51           -3.9126     6.9722    -9.6218 H       
  52 H52           -5.2651     5.8283    -9.7972 H       
  53 H53           -5.4054     7.4789   -10.4483 H       
  54 H54           -6.8065    10.2260    -5.4091 H       
  55 H55           -7.2248    10.2486    -7.1391 H       
  56 H56           -7.3228     8.7277    -6.2195 H       
  57 H57           -3.4817    10.4908    -6.8502 H       
  58 H58           -4.9398    11.3862    -7.3403 H       
  59 H59           -4.6133    11.0931    -5.6153 H       
  60 H60            2.8402     1.5119    -0.3293 H       
  61 H61            3.6267    -0.0338    -0.7299 H       
  62 H62            3.3695     0.4615    -3.1460 H       
  63 H63            2.5830     2.0072    -2.7453 H       
  64 H64            4.2925     1.7435    -2.3258 H       
@<TRIPOS>BOND
   1    1    2 2
   2    1    6 1
   3    1    7 1
   4    2    3 1
   5    3    4 1
   6    3   10 2
   7    4    5 2
   8    4   31 1
   9    5    6 1
  10    5   29 1
  11    6    8 1
  12    7    9 1
  13    8    9 1
  14    8   32 1
  15    8   33 1
  16    9   11 1
  17    9   34 1
  18   11   12 1
  19   11   35 1
  20   11   36 1
  21   12   13 1
  22   13   14 ar
  23   13   18 ar
  24   14   15 ar
  25   14   37 1
  26   15   16 ar
  27   15   38 1
  28   16   17 ar
  29   16   19 1
  30   17   18 ar
  31   17   39 1
  32   18   40 1
  33   19   20 1
  34   19   24 1
  35   19   41 1
  36   20   21 1
  37   20   42 1
  38   20   43 1
  39   21   22 1
  40   21   27 1
  41   21   28 1
  42   22   23 1
  43   22   44 1
  44   22   45 1
  45   23   24 1
  46   23   25 1
  47   23   26 1
  48   24   46 1
  49   24   47 1
  50   25   48 1
  51   25   49 1
  52   25   50 1
  53   26   51 1
  54   26   52 1
  55   26   53 1
  56   27   54 1
  57   27   55 1
  58   27   56 1
  59   28   57 1
  60   28   58 1
  61   28   59 1
  62   29   30 1
  63   29   60 1
  64   29   61 1
  65   30   62 1
  66   30   63 1
  67   30   64 1

#	End of record

