#	Name: ASD03090085
#	Creating user name:	WinNT
#	Creation time:	15. 06. 2019 20:28

#	Modifying user name:	WinNT
#	Modification time:	15. 06. 2019 20:28

#	Program:	/corina/corina34_cracker 3.40 0067  02.08.2006

@<TRIPOS>MOLECULE
ASD03090085
  41   42    0    0    0
SMALL
NO_CHARGES


@<TRIPOS>ATOM
   1 C1            -0.0829     1.3664     0.1480 C.2     
   2 C2            -0.0798    -0.1010     0.0003 C.ar    
   3 C3             1.1289    -0.8040     0.0154 C.ar    
   4 C4             1.1287    -2.1680    -0.1216 C.ar    
   5 C5            -0.0740    -2.8537    -0.2757 C.ar    
   6 C6            -1.2796    -2.1561    -0.2911 C.ar    
   7 C7            -1.2859    -0.7925    -0.1492 C.ar    
   8 O8             0.9663     1.9661     0.2830 O.2     
   9 N9            -1.2482     2.0433     0.1278 N.am    
  10 S10           -0.0703    -4.6069    -0.4521 S.3     
  11 C11           -1.8326    -5.0042    -0.6167 C.3     
  12 F12           -2.3549    -4.3520    -1.7388 F       
  13 F13           -1.9870    -6.3865    -0.7669 F       
  14 F14           -2.5151    -4.5805     0.5287 F       
  15 C15           -1.2513     3.5009     0.2745 C.3     
  16 C16           -2.6691     4.0084     0.2180 C.ar    
  17 C17           -3.4084     4.1209     1.3812 C.ar    
  18 C18           -4.7080     4.5857     1.3331 C.ar    
  19 C19           -5.2724     4.9403     0.1143 C.ar    
  20 C20           -4.5269     4.8261    -1.0522 C.ar    
  21 C21           -3.2260     4.3660    -0.9962 C.ar    
  22 N22           -6.5867     5.4103     0.0619 N.am    
  23 S23           -6.9363     6.9493     0.5635 S.o2    
  24 O24           -8.3355     7.0776     0.3516 O.2     
  25 O25           -6.3831     7.0262     1.8701 O.2     
  26 C26           -6.0188     8.0175    -0.5801 C.3     
  27 H27            2.0617    -0.2728     0.1345 H       
  28 H28            2.0619    -2.7115    -0.1105 H       
  29 H29           -2.2106    -2.6903    -0.4111 H       
  30 H30           -2.2212    -0.2526    -0.1570 H       
  31 H31           -2.0848     1.5653     0.0161 H       
  32 H32           -0.8067     3.7706     1.2325 H       
  33 H33           -0.6727     3.9486    -0.5335 H       
  34 H34           -2.9691     3.8447     2.3284 H       
  35 H35           -5.2850     4.6729     2.2418 H       
  36 H36           -4.9627     5.1010    -2.0014 H       
  37 H37           -2.6443     4.2814    -1.9022 H       
  38 H38           -7.2946     4.8352    -0.2683 H       
  39 H39           -6.2934     7.7721    -1.6060 H       
  40 H40           -6.2629     9.0604    -0.3781 H       
  41 H41           -4.9487     7.8618    -0.4433 H       
@<TRIPOS>BOND
   1    1    2 1
   2    1    8 2
   3    1    9 am
   4    2    3 ar
   5    2    7 ar
   6    3    4 ar
   7    3   27 1
   8    4    5 ar
   9    4   28 1
  10    5    6 ar
  11    5   10 1
  12    6    7 ar
  13    6   29 1
  14    7   30 1
  15    9   15 1
  16    9   31 1
  17   10   11 1
  18   11   12 1
  19   11   13 1
  20   11   14 1
  21   15   16 1
  22   15   32 1
  23   15   33 1
  24   16   17 ar
  25   16   21 ar
  26   17   18 ar
  27   17   34 1
  28   18   19 ar
  29   18   35 1
  30   19   20 ar
  31   19   22 1
  32   20   21 ar
  33   20   36 1
  34   21   37 1
  35   22   23 am
  36   22   38 1
  37   23   24 2
  38   23   25 2
  39   23   26 1
  40   26   39 1
  41   26   40 1
  42   26   41 1

#	End of record

