#	Name: ASD06350001
#	Creating user name:	WinNT
#	Creation time:	15. 06. 2019 21:06

#	Modifying user name:	WinNT
#	Modification time:	15. 06. 2019 21:06

#	Program:	/corina/corina34_cracker 3.40 0067  02.08.2006

@<TRIPOS>MOLECULE
ASD06350001
  23   24    0    0    0
SMALL
NO_CHARGES


@<TRIPOS>ATOM
   1 Cl1           -3.4905     0.2355    -2.4610 Cl      
   2 C2            -3.1121     1.9273    -2.3710 C.ar    
   3 N3            -3.0415     2.6594    -3.4744 N.ar    
   4 C4            -2.7549     3.9445    -3.4178 C.ar    
   5 N5            -2.5270     4.5558    -2.2732 N.ar    
   6 C6            -2.5794     3.8895    -1.1247 C.ar    
   7 C7            -2.8857     2.5308    -1.1458 C.ar    
   8 O8            -2.3441     4.5235     0.0498 O.3     
   9 C9            -2.1554     5.8690     0.0219 C.ar    
  10 C10           -3.2402     6.7198    -0.1345 C.ar    
  11 C11           -3.0458     8.0871    -0.1626 C.ar    
  12 C12           -1.7713     8.6081    -0.0354 C.ar    
  13 C13           -0.6885     7.7624     0.1202 C.ar    
  14 C14           -0.8783     6.3946     0.1555 C.ar    
  15 N15           -1.5658    10.0736    -0.0663 N.pl3   
  16 O16           -2.5188    10.8195    -0.2037 O.2     
  17 O17           -0.4436    10.5337     0.0456 O.2     
  18 H18           -2.7052     4.5122    -4.3352 H       
  19 H19           -2.9363     1.9605    -0.2301 H       
  20 H20           -4.2358     6.3133    -0.2346 H       
  21 H21           -3.8898     8.7497    -0.2844 H       
  22 H22            0.3060     8.1719     0.2189 H       
  23 H23           -0.0323     5.7345     0.2774 H       
@<TRIPOS>BOND
   1    1    2 1
   2    2    3 ar
   3    2    7 ar
   4    3    4 ar
   5    4    5 ar
   6    4   18 1
   7    5    6 ar
   8    6    7 ar
   9    6    8 1
  10    7   19 1
  11    8    9 1
  12    9   10 ar
  13    9   14 ar
  14   10   11 ar
  15   10   20 1
  16   11   12 ar
  17   11   21 1
  18   12   13 ar
  19   12   15 1
  20   13   14 ar
  21   13   22 1
  22   14   23 1
  23   15   16 2
  24   15   17 2

#	End of record

