#	Name: ASD01152573
#	Creating user name:	WinNT
#	Creation time:	15. 06. 2019 19:06

#	Modifying user name:	WinNT
#	Modification time:	15. 06. 2019 19:06

#	Program:	/corina/corina34_cracker 3.40 0067  02.08.2006

@<TRIPOS>MOLECULE
ASD01152573
  55   57    0    0    0
SMALL
NO_CHARGES


@<TRIPOS>ATOM
   1 C1            -0.3504     1.3556    -0.0009 C.2     
   2 N2            -0.3387     0.0565    -0.1366 N.2     
   3 N3            -1.3669    -0.7403     0.3666 N.am    
   4 C4            -2.5199    -0.2269     0.8266 C.2     
   5 C5            -2.7988     1.2524     0.7018 C.3     
   6 C6            -1.4656     1.9775     0.7294 C.2     
   7 C7            -3.5210     1.5340    -0.6173 C.3     
   8 O8            -1.3296     3.0282     1.3216 O.2     
   9 O9             0.6496     2.1161    -0.5186 O.3     
  10 C10           -1.1908    -2.1283     0.3928 C.ar    
  11 O11           -3.3405    -0.9543     1.3441 O.2     
  12 C12           -3.9046     2.9900    -0.6792 C.ar    
  13 C13           -2.1830    -2.9638    -0.1001 C.ar    
  14 C14           -0.0196    -2.6713     0.9075 C.ar    
  15 C15            0.1548    -4.0413     0.9337 C.ar    
  16 C16           -0.8336    -4.8761     0.4483 C.ar    
  17 C17           -2.0044    -4.3396    -0.0722 C.ar    
  18 C18           -3.0324     3.9119    -1.2272 C.ar    
  19 C19           -5.1310     3.4029    -0.1931 C.ar    
  20 C20           -5.4829     4.7386    -0.2499 C.ar    
  21 C21           -3.3842     5.2475    -1.2839 C.ar    
  22 C22           -4.6081     5.6613    -0.7923 C.ar    
  23 C23            1.6966     1.4296    -1.2076 C.3     
  24 C24            2.7232     2.4438    -1.7159 C.3     
  25 O25            3.3561     3.0794    -0.6035 O.3     
  26 C26            4.3381     4.0504    -0.9703 C.3     
  27 N27           -4.9851     7.0914    -0.8535 N.pl3   
  28 O28           -6.0660     7.4551    -0.4260 O.2     
  29 O29           -4.2144     7.9044    -1.3315 O.2     
  30 N30           -3.0027    -5.1856    -0.5679 N.am    
  31 C31           -3.2338    -6.3742     0.0239 C.2     
  32 O32           -2.5218    -6.7483     0.9317 O.2     
  33 C33           -4.3768    -7.2386    -0.4425 C.3     
  34 H34           -3.4140     1.5839     1.5383 H       
  35 H35           -2.8603     1.2965    -1.4511 H       
  36 H36           -4.4187     0.9188    -0.6785 H       
  37 H37           -3.0923    -2.5442    -0.5044 H       
  38 H38            0.7551    -2.0215     1.2869 H       
  39 H39            1.0659    -4.4609     1.3341 H       
  40 H40           -0.6939    -5.9468     0.4696 H       
  41 H41           -2.0759     3.5887    -1.6107 H       
  42 H42           -5.8144     2.6820     0.2307 H       
  43 H43           -6.4413     5.0611     0.1293 H       
  44 H44           -2.7026     5.9678    -1.7117 H       
  45 H45            2.1825     0.7309    -0.5266 H       
  46 H46            1.2778     0.8822    -2.0520 H       
  47 H47            3.4741     1.9307    -2.3167 H       
  48 H48            2.2209     3.1947    -2.3259 H       
  49 H49            5.1226     3.5706    -1.5556 H       
  50 H50            3.8694     4.8346    -1.5648 H       
  51 H51            4.7716     4.4867    -0.0704 H       
  52 H52           -3.5285    -4.9165    -1.3374 H       
  53 H53           -4.2364    -7.4906    -1.4936 H       
  54 H54           -4.4058    -8.1532     0.1497 H       
  55 H55           -5.3149    -6.6971    -0.3209 H       
@<TRIPOS>BOND
   1    1    2 2
   2    1    9 1
   3    1    6 1
   4    2    3 1
   5    3    4 am
   6    3   10 1
   7    4    5 1
   8    4   11 2
   9    5    6 1
  10    5    7 1
  11    5   34 1
  12    6    8 2
  13    7   12 1
  14    7   35 1
  15    7   36 1
  16    9   23 1
  17   10   13 ar
  18   10   14 ar
  19   12   18 ar
  20   12   19 ar
  21   13   17 ar
  22   13   37 1
  23   14   15 ar
  24   14   38 1
  25   15   16 ar
  26   15   39 1
  27   16   17 ar
  28   16   40 1
  29   17   30 1
  30   18   21 ar
  31   18   41 1
  32   19   20 ar
  33   19   42 1
  34   20   22 ar
  35   20   43 1
  36   21   22 ar
  37   21   44 1
  38   22   27 1
  39   23   24 1
  40   23   45 1
  41   23   46 1
  42   24   25 1
  43   24   47 1
  44   24   48 1
  45   25   26 1
  46   26   49 1
  47   26   50 1
  48   26   51 1
  49   27   28 2
  50   27   29 2
  51   30   31 am
  52   30   52 1
  53   31   32 2
  54   31   33 1
  55   33   53 1
  56   33   54 1
  57   33   55 1

#	End of record

