#	Name: ASD01884878
#	Creating user name:	WinNT
#	Creation time:	15. 06. 2019 19:49

#	Modifying user name:	WinNT
#	Modification time:	15. 06. 2019 19:49

#	Program:	/corina/corina34_cracker 3.40 0067  02.08.2006

@<TRIPOS>MOLECULE
ASD01884878
  44   49    0    0    0
SMALL
NO_CHARGES


@<TRIPOS>ATOM
   1 N1             2.3587     1.1424    -1.3399 N.ar    
   2 C2             2.2118    -0.1597    -1.2442 C.ar    
   3 C3             1.4897    -0.7362    -0.1945 C.ar    
   4 C4             0.9148     0.0918     0.7691 C.ar    
   5 C5             1.0907     1.4691     0.6365 C.ar    
   6 C6             1.8320     1.9745    -0.4497 C.ar    
   7 C7             0.6588     2.6330     1.4135 C.2     
   8 C8             1.1378     3.7187     0.7867 C.2     
   9 N9             1.8401     3.3430    -0.3269 N.pl3   
  10 C10            1.3369    -2.2078    -0.1075 C.2     
  11 C11            0.5920    -2.8889    -1.0514 C.2     
  12 C12            1.9577    -2.9303     0.9402 C.2     
  13 C13            1.8182    -4.2671     1.0172 C.2     
  14 N14            1.0803    -4.9475     0.0919 N.pl3   
  15 C15            0.4657    -4.2843    -0.9427 C.2     
  16 C16            0.7739    -6.2637    -0.0765 C.2     
  17 N17            0.0222    -6.3599    -1.1426 N.2     
  18 N18           -0.1661    -5.1983    -1.6630 N.2     
  19 C19            1.2196    -7.4019     0.8048 C.3     
  20 C20            2.5037     4.2652    -1.2519 C.3     
  21 C21            0.1324    -8.2345     1.4873 C.3     
  22 C22            0.9296    -8.8245     0.3222 C.3     
  23 C23            1.6309     5.2992    -1.9659 C.3     
  24 C24            2.5784     5.7390    -0.8479 C.3     
  25 C25           -0.0755    -2.1463    -2.1802 C.3     
  26 F26            0.8535    -1.9159    -3.2005 F       
  27 F27           -1.1357    -2.9108    -2.6788 F       
  28 F28           -0.5638    -0.9228    -1.7091 F       
  29 H29            2.6579    -0.7984    -1.9922 H       
  30 H30            0.3506    -0.3207     1.5924 H       
  31 H31            0.0678     2.6201     2.3174 H       
  32 H32            0.9904     4.7379     1.1121 H       
  33 H33            2.5456    -2.4072     1.6799 H       
  34 H34            2.2962    -4.8078     1.8206 H       
  35 H35            2.1458    -7.2357     1.3548 H       
  36 H36            3.3472     3.8510    -1.8042 H       
  37 H37            0.3436    -8.6164     2.4861 H       
  38 H38           -0.9052    -7.9590     1.2987 H       
  39 H39            0.4164    -8.9372    -0.6328 H       
  40 H40            1.6652    -9.5946     0.5545 H       
  41 H41            1.9005     5.5657    -2.9879 H       
  42 H42            0.5631     5.2935    -1.7475 H       
  43 H43            2.1338     6.0225     0.1060 H       
  44 H44            3.4712     6.2947    -1.1344 H       
@<TRIPOS>BOND
   1    1    2 ar
   2    1    6 ar
   3    2    3 ar
   4    2   29 1
   5    3    4 ar
   6    3   10 1
   7    4    5 ar
   8    4   30 1
   9    5    6 ar
  10    5    7 1
  11    6    9 1
  12    7    8 2
  13    7   31 1
  14    8    9 1
  15    8   32 1
  16    9   20 1
  17   10   11 2
  18   10   12 1
  19   11   25 1
  20   11   15 1
  21   12   13 2
  22   12   33 1
  23   13   14 1
  24   13   34 1
  25   14   15 1
  26   14   16 1
  27   15   18 2
  28   16   17 2
  29   16   19 1
  30   17   18 1
  31   19   21 1
  32   19   22 1
  33   19   35 1
  34   20   23 1
  35   20   24 1
  36   20   36 1
  37   21   22 1
  38   21   37 1
  39   21   38 1
  40   22   39 1
  41   22   40 1
  42   23   24 1
  43   23   41 1
  44   23   42 1
  45   24   43 1
  46   24   44 1
  47   25   26 1
  48   25   27 1
  49   25   28 1

#	End of record

