#	Name: ASD01918100
#	Creating user name:	WinNT
#	Creation time:	15. 06. 2019 20:10

#	Modifying user name:	WinNT
#	Modification time:	15. 06. 2019 20:10

#	Program:	/corina/corina34_cracker 3.40 0067  02.08.2006

@<TRIPOS>MOLECULE
ASD01918100
  47   50    0    0    0
SMALL
NO_CHARGES


@<TRIPOS>ATOM
   1 N1            -0.0165     1.3963    -0.0016 N.am    
   2 C2             0.0037    -0.0032    -0.0007 C.2     
   3 C3             2.4199    -0.1095    -0.5986 C.3     
   4 C4             2.1897     1.3378    -1.0481 C.3     
   5 C5             1.2999     2.0639    -0.0329 C.3     
   6 C6            -0.9950    -0.8770     0.2491 C.2     
   7 C7            -0.4680    -2.1691     0.1269 C.2     
   8 N8             0.8019    -2.0703    -0.1854 N.2     
   9 N9             1.1269    -0.7174    -0.2739 N.pl3   
  10 C10           -1.2306    -3.4543     0.3218 C.3     
  11 O11           -2.5882    -3.1569     0.6539 O.3     
  12 C12           -1.1698     2.0934     0.0191 C.2     
  13 C13           -1.1405     3.5952     0.1408 C.3     
  14 O14           -2.2313     1.5120    -0.0603 O.2     
  15 C15           -3.4176    -4.2128     0.8639 C.ar    
  16 C16           -4.7486    -3.9968     1.1900 C.ar    
  17 C17           -5.5896    -5.0719     1.4030 C.ar    
  18 C18           -5.1057    -6.3623     1.2915 C.ar    
  19 C19           -3.7794    -6.5802     0.9671 C.ar    
  20 C20           -2.9359    -5.5086     0.7471 C.ar    
  21 C21           -2.5638     4.1631     0.0023 C.3     
  22 C22           -1.4836     5.2490     1.9009 C.3     
  23 C23           -0.6380     4.0020     1.5415 C.3     
  24 C24           -2.8767     4.8953     1.3235 C.3     
  25 H25            2.8951    -0.6704    -1.4034 H       
  26 H26            3.0602    -0.1203     0.2835 H       
  27 H27            3.1485     1.8511    -1.1214 H       
  28 H28            1.7032     1.3410    -2.0235 H       
  29 H29            1.1758     3.1044    -0.3329 H       
  30 H30            1.7580     2.0168     0.9551 H       
  31 H31           -2.0152    -0.6252     0.4982 H       
  32 H32           -1.2010    -4.0374    -0.5986 H       
  33 H33           -0.7760    -4.0275     1.1299 H       
  34 H34           -0.4929     4.0191    -0.6267 H       
  35 H35           -5.1269    -2.9891     1.2775 H       
  36 H36           -6.6258    -4.9043     1.6572 H       
  37 H37           -5.7648    -7.2015     1.4584 H       
  38 H38           -3.4037    -7.5891     0.8813 H       
  39 H39           -1.9000    -5.6793     0.4937 H       
  40 H40           -2.6068     4.8634    -0.8319 H       
  41 H41           -3.2758     3.3525    -0.1531 H       
  42 H42           -1.5357     5.3820     2.9815 H       
  43 H43           -1.0811     6.1404     1.4199 H       
  44 H44           -0.8164     3.2006     2.2584 H       
  45 H45            0.4214     4.2563     1.5078 H       
  46 H46           -3.4510     5.8015     1.1308 H       
  47 H47           -3.4165     4.2382     2.0053 H       
@<TRIPOS>BOND
   1    1    2 1
   2    1    5 1
   3    1   12 am
   4    2    6 2
   5    2    9 1
   6    3    4 1
   7    3    9 1
   8    3   25 1
   9    3   26 1
  10    4    5 1
  11    4   27 1
  12    4   28 1
  13    5   29 1
  14    5   30 1
  15    6    7 1
  16    6   31 1
  17    7    8 2
  18    7   10 1
  19    8    9 1
  20   10   11 1
  21   10   32 1
  22   10   33 1
  23   11   15 1
  24   12   13 1
  25   12   14 2
  26   13   21 1
  27   13   23 1
  28   13   34 1
  29   15   16 ar
  30   15   20 ar
  31   16   17 ar
  32   16   35 1
  33   17   18 ar
  34   17   36 1
  35   18   19 ar
  36   18   37 1
  37   19   20 ar
  38   19   38 1
  39   20   39 1
  40   21   24 1
  41   21   40 1
  42   21   41 1
  43   22   23 1
  44   22   24 1
  45   22   42 1
  46   22   43 1
  47   23   44 1
  48   23   45 1
  49   24   46 1
  50   24   47 1

#	End of record

