#	Name: ASD01884578
#	Creating user name:	WinNT
#	Creation time:	15. 06. 2019 19:48

#	Modifying user name:	WinNT
#	Modification time:	15. 06. 2019 19:48

#	Program:	/corina/corina34_cracker 3.40 0067  02.08.2006

@<TRIPOS>MOLECULE
ASD01884578
  51   53    0    0    0
SMALL
NO_CHARGES


@<TRIPOS>ATOM
   1 C1            -0.0164     1.3598     0.0095 C.2     
   2 C2             0.0021    -0.0041     0.0020 C.2     
   3 C3             1.2342    -0.6727    -0.0133 C.2     
   4 C4             2.3874     0.0358    -0.0205 C.2     
   5 N5             2.3670     1.3933    -0.0126 N.am    
   6 C6             1.1996     2.0643     0.0017 C.2     
   7 O7             1.1975     3.2849     0.0083 O.2     
   8 C8             3.6294     2.1366    -0.0197 C.3     
   9 C9             1.2747    -2.1791    -0.0213 C.3     
  10 C10            1.1781    -2.6917     1.3925 C.ar    
  11 C11           -0.0601    -2.9580     1.9471 C.ar    
  12 C12           -0.1513    -3.4280     3.2429 C.ar    
  13 C13            1.0009    -3.6327     3.9880 C.ar    
  14 C14            2.2422    -3.3647     3.4293 C.ar    
  15 C15            2.3283    -2.9003     2.1311 C.ar    
  16 O16            0.9139    -4.0945     5.2631 O.3     
  17 C17            2.1413    -4.2817     5.9706 C.3     
  18 C18            4.0560     2.4036    -1.4646 C.3     
  19 C19            5.8009     3.4468    -2.9169 C.3     
  20 C20            5.3744     3.1798    -1.4720 C.3     
  21 C21            7.0995     4.2114    -2.9242 C.ar    
  22 C22            8.3033     3.5326    -2.8343 C.ar    
  23 C23            9.4956     4.2356    -2.8411 C.ar    
  24 C24            9.4834     5.6155    -2.9376 C.ar    
  25 C25            8.2800     6.2920    -3.0273 C.ar    
  26 C26            7.0894     5.5894    -3.0262 C.ar    
  27 Cl27          10.9781     6.4983    -2.9456 Cl      
  28 F28            8.3138     2.1849    -2.7397 F       
  29 H29           -0.9557     1.8927     0.0169 H       
  30 H30           -0.9222    -0.5627     0.0082 H       
  31 H31            3.3339    -0.4842    -0.0324 H       
  32 H32            3.4957     3.0849     0.5008 H       
  33 H33            4.3986     1.5511     0.4839 H       
  34 H34            0.4372    -2.5620    -0.6046 H       
  35 H35            2.2112    -2.5151    -0.4665 H       
  36 H36           -0.9569    -2.7982     1.3668 H       
  37 H37           -1.1188    -3.6355     3.6757 H       
  38 H38            3.1406    -3.5233     4.0072 H       
  39 H39            3.2943    -2.6915     1.6957 H       
  40 H40            1.9297    -4.6527     6.9734 H       
  41 H41            2.7605    -5.0043     5.4390 H       
  42 H42            2.6699    -3.3309     6.0389 H       
  43 H43            4.1897     1.4552    -1.9851 H       
  44 H44            3.2868     2.9891    -1.9682 H       
  45 H45            5.9347     2.4985    -3.4374 H       
  46 H46            5.0317     4.0323    -3.4205 H       
  47 H47            5.2406     4.1281    -0.9515 H       
  48 H48            6.1436     2.5943    -0.9684 H       
  49 H49           10.4348     3.7072    -2.7707 H       
  50 H50            8.2708     7.3694    -3.1023 H       
  51 H51            6.1505     6.1185    -3.0966 H       
@<TRIPOS>BOND
   1    1    2 2
   2    1    6 1
   3    1   29 1
   4    2    3 1
   5    2   30 1
   6    3    4 2
   7    3    9 1
   8    4    5 1
   9    4   31 1
  10    5    6 am
  11    5    8 1
  12    6    7 2
  13    8   18 1
  14    8   32 1
  15    8   33 1
  16    9   10 1
  17    9   34 1
  18    9   35 1
  19   10   11 ar
  20   10   15 ar
  21   11   12 ar
  22   11   36 1
  23   12   13 ar
  24   12   37 1
  25   13   14 ar
  26   13   16 1
  27   14   15 ar
  28   14   38 1
  29   15   39 1
  30   16   17 1
  31   17   40 1
  32   17   41 1
  33   17   42 1
  34   18   20 1
  35   18   43 1
  36   18   44 1
  37   19   20 1
  38   19   21 1
  39   19   45 1
  40   19   46 1
  41   20   47 1
  42   20   48 1
  43   21   22 ar
  44   21   26 ar
  45   22   23 ar
  46   22   28 1
  47   23   24 ar
  48   23   49 1
  49   24   25 ar
  50   24   27 1
  51   25   26 ar
  52   25   50 1
  53   26   51 1

#	End of record

