#	Name: ASD01918019
#	Creating user name:	WinNT
#	Creation time:	15. 06. 2019 20:10

#	Modifying user name:	WinNT
#	Modification time:	15. 06. 2019 20:10

#	Program:	/corina/corina34_cracker 3.40 0067  02.08.2006

@<TRIPOS>MOLECULE
ASD01918019
  40   43    0    0    0
SMALL
NO_CHARGES


@<TRIPOS>ATOM
   1 N1             4.8190    -0.4146    -2.1410 N.ar    
   2 C2             5.2863     0.2836    -3.1572 C.ar    
   3 C3             5.1753     1.6615    -3.1826 C.ar    
   4 C4             4.5632     2.3103    -2.1227 C.ar    
   5 C5             4.0810     1.5426    -1.0669 C.ar    
   6 C6             4.2301     0.1641    -1.1132 C.ar    
   7 O7             3.4736     2.1348    -0.0052 O.3     
   8 C8             3.4560     3.4940     0.0439 C.2     
   9 N9             2.2078     5.5082    -0.0231 N.pl3   
  10 C10            2.2740     4.1523    -0.0660 C.2     
  11 C11            4.6565     4.1941     0.2128 C.2     
  12 C12            4.6303     5.5835     0.2620 C.2     
  13 C13            3.3387     6.2580     0.1341 C.2     
  14 C14            5.8714     6.3562     0.4389 C.2     
  15 N15            5.8263     7.7024     0.4843 N.am    
  16 C16            6.9830     8.4293     0.7569 C.ar    
  17 O17            6.9370     5.7795     0.5441 O.2     
  18 N18            1.1460     6.4205    -0.1094 N.2     
  19 C19            1.6622     7.6227    -0.0123 C.2     
  20 N20            2.9772     7.5313     0.1399 N.2     
  21 C21            5.7143     2.4483    -4.3494 C.3     
  22 N22            8.1432     7.8003     0.8632 N.ar    
  23 C23            6.9095     9.8092     0.9092 C.ar    
  24 C24            8.0664    10.5191     1.1794 C.ar    
  25 C25            9.2613     9.8214     1.2883 C.ar    
  26 C26            9.2617     8.4505     1.1199 C.ar    
  27 H27            5.7625    -0.2278    -3.9807 H       
  28 H28            4.4630     3.3857    -2.1158 H       
  29 H29            3.8595    -0.4412    -0.2992 H       
  30 H30            1.3641     3.5840    -0.1911 H       
  31 H31            5.5916     3.6615     0.3041 H       
  32 H32            4.9885     8.1652     0.3271 H       
  33 H33            1.1016     8.5454    -0.0432 H       
  34 H34            4.9364     2.5561    -5.1053 H       
  35 H35            6.0286     3.4347    -4.0083 H       
  36 H36            6.5676     1.9233    -4.7785 H       
  37 H37            5.9625    10.3203     0.8176 H       
  38 H38            8.0400    11.5917     1.3024 H       
  39 H39           10.1820    10.3455     1.4981 H       
  40 H40           10.1898     7.9039     1.1996 H       
@<TRIPOS>BOND
   1    1    2 ar
   2    1    6 ar
   3    2    3 ar
   4    2   27 1
   5    3    4 ar
   6    3   21 1
   7    4    5 ar
   8    4   28 1
   9    5    6 ar
  10    5    7 1
  11    6   29 1
  12    7    8 1
  13    8   11 1
  14    8   10 2
  15    9   10 1
  16    9   18 1
  17    9   13 1
  18   10   30 1
  19   11   12 2
  20   11   31 1
  21   12   13 1
  22   12   14 1
  23   13   20 2
  24   14   15 am
  25   14   17 2
  26   15   16 1
  27   15   32 1
  28   16   23 ar
  29   16   22 ar
  30   18   19 2
  31   19   20 1
  32   19   33 1
  33   21   34 1
  34   21   35 1
  35   21   36 1
  36   22   26 ar
  37   23   24 ar
  38   23   37 1
  39   24   25 ar
  40   24   38 1
  41   25   26 ar
  42   25   39 1
  43   26   40 1

#	End of record

