#	Name: ASD01180080
#	Creating user name:	WinNT
#	Creation time:	15. 06. 2019 19:06

#	Modifying user name:	WinNT
#	Modification time:	15. 06. 2019 19:06

#	Program:	/corina/corina34_cracker 3.40 0067  02.08.2006

@<TRIPOS>MOLECULE
ASD01180080
  54   56    0    0    0
SMALL
NO_CHARGES


@<TRIPOS>ATOM
   1 C1             0.6022     1.6264     0.6409 C.2     
   2 C2             0.5290     0.1240     0.5497 C.3     
   3 C3             1.9439    -0.4510     0.4590 C.3     
   4 O4             1.6759     2.1805     0.6340 O.2     
   5 O5            -0.5256     2.3495     0.7242 O.3     
   6 C6             3.0050    -2.6373     0.2811 C.2     
   7 C7             2.9332    -4.1113     0.1917 C.ar    
   8 C8             4.1038    -4.8657     0.0992 C.ar    
   9 C9             4.0298    -6.2408     0.0165 C.ar    
  10 C10            2.7987    -6.8722     0.0247 C.ar    
  11 C11            1.6345    -6.1302     0.1162 C.ar    
  12 C12            1.6947    -4.7548     0.2053 C.ar    
  13 O13            4.0852    -2.0799     0.2742 O.2     
  14 N14            1.8728    -1.9116     0.3704 N.am    
  15 C15            2.7255    -8.3746    -0.0669 C.3     
  16 C16            2.5058    -8.9606     1.3292 C.3     
  17 C17            2.5635   -10.4877     1.2562 C.3     
  18 C18            2.4675   -11.0698     2.6679 C.3     
  19 N19            1.6113    -8.7570    -0.9379 N.pl3   
  20 N20            3.2256    -8.5007    -4.1790 N.ar    
  21 C21            3.0367    -8.5032    -2.8831 C.ar    
  22 C22            1.7787    -8.7619    -2.3247 C.ar    
  23 C23            0.7042    -9.0224    -3.1532 C.ar    
  24 C24            0.9243    -9.0163    -4.5426 C.ar    
  25 C25           -0.1190    -9.2724    -5.4473 C.ar    
  26 C26            0.1319    -9.2579    -6.7855 C.ar    
  27 C27            1.4110    -8.9923    -7.2697 C.ar    
  28 C28            2.4451    -8.7400    -6.4215 C.ar    
  29 C29            2.2265    -8.7459    -5.0328 C.ar    
  30 F30            1.2594   -10.6763     3.2534 F       
  31 F31            2.5203   -12.4662     2.6011 F       
  32 F32            3.5350   -10.5992     3.4400 F       
  33 H33            0.0329    -0.2701     1.4367 H       
  34 H34           -0.0359    -0.1591    -0.3385 H       
  35 H35            2.4401    -0.0569    -0.4280 H       
  36 H36            2.5088    -0.1680     1.3472 H       
  37 H37           -0.4282     3.3099     0.7807 H       
  38 H38            5.0654    -4.3741     0.0920 H       
  39 H39            4.9349    -6.8258    -0.0551 H       
  40 H40            0.6766    -6.6291     0.1221 H       
  41 H41            0.7854    -4.1770     0.2811 H       
  42 H42            1.0108    -2.3564     0.3759 H       
  43 H43            3.6580    -8.7593    -0.4798 H       
  44 H44            3.2840    -8.5993     2.0015 H       
  45 H45            1.5300    -8.6514     1.7036 H       
  46 H46            1.7318   -10.8544     0.6546 H       
  47 H47            3.5048   -10.7944     0.8001 H       
  48 H48            0.7573    -9.0068    -0.5515 H       
  49 H49            3.8717    -8.3005    -2.2288 H       
  50 H50           -0.2755    -9.2251    -2.7463 H       
  51 H51           -1.1145    -9.4799    -5.0836 H       
  52 H52           -0.6708    -9.4553    -7.4805 H       
  53 H53            1.5849    -8.9868    -8.3356 H       
  54 H54            3.4302    -8.5357    -6.8140 H       
@<TRIPOS>BOND
   1    1    2 1
   2    1    4 2
   3    1    5 1
   4    2    3 1
   5    2   33 1
   6    2   34 1
   7    3   14 1
   8    3   35 1
   9    3   36 1
  10    5   37 1
  11    6    7 1
  12    6   13 2
  13    6   14 am
  14    7    8 ar
  15    7   12 ar
  16    8    9 ar
  17    8   38 1
  18    9   10 ar
  19    9   39 1
  20   10   11 ar
  21   10   15 1
  22   11   12 ar
  23   11   40 1
  24   12   41 1
  25   14   42 1
  26   15   16 1
  27   15   19 1
  28   15   43 1
  29   16   17 1
  30   16   44 1
  31   16   45 1
  32   17   18 1
  33   17   46 1
  34   17   47 1
  35   18   30 1
  36   18   31 1
  37   18   32 1
  38   19   22 1
  39   19   48 1
  40   20   21 ar
  41   20   29 ar
  42   21   22 ar
  43   21   49 1
  44   22   23 ar
  45   23   24 ar
  46   23   50 1
  47   24   25 ar
  48   24   29 ar
  49   25   26 ar
  50   25   51 1
  51   26   27 ar
  52   26   52 1
  53   27   28 ar
  54   27   53 1
  55   28   29 ar
  56   28   54 1

#	End of record

