#	Name: ASD00100126
#	Creating user name:	WinNT
#	Creation time:	15. 06. 2019 18:30

#	Modifying user name:	WinNT
#	Modification time:	15. 06. 2019 18:30

#	Program:	/corina/corina34_cracker 3.40 0067  02.08.2006

@<TRIPOS>MOLECULE
ASD00100126
  40   42    0    0    0
SMALL
NO_CHARGES


@<TRIPOS>ATOM
   1 N1            -0.1263     1.5372     0.3558 N.pl3   
   2 C2            -0.0185     0.1687     0.1770 C.2     
   3 N3             1.1016    -0.4965     0.0328 N.2     
   4 C4             0.8192    -1.8150    -0.1178 C.2     
   5 C5            -0.5278    -1.9615    -0.0634 C.2     
   6 N6            -1.0577    -0.7087     0.1280 N.pl3   
   7 C7             1.8087    -2.9034    -0.3087 C.ar    
   8 C8             3.1711    -2.6116    -0.3456 C.ar    
   9 C9             4.0873    -3.6284    -0.5230 C.ar    
  10 C10            3.6556    -4.9350    -0.6645 C.ar    
  11 C11            2.3047    -5.2304    -0.6286 C.ar    
  12 C12            1.3799    -4.2224    -0.4460 C.ar    
  13 N13            4.6432    -6.0212    -0.8555 N.pl3   
  14 O14            5.8332    -5.7636    -0.8878 O.2     
  15 O15            4.2656    -7.1725    -0.9803 O.2     
  16 C16           -2.4793    -0.3777     0.2536 C.3     
  17 C17           -3.0245     0.0155    -1.0952 C.ar    
  18 C18           -3.4574    -0.9611    -1.9807 C.ar    
  19 C19           -3.9587    -0.5960    -3.2215 C.ar    
  20 C20           -4.0258     0.7386    -3.5726 C.ar    
  21 C21           -3.5935     1.7097    -2.6887 C.ar    
  22 C22           -3.0990     1.3486    -1.4487 C.ar    
  23 O23           -3.3899    -2.2732    -1.6332 O.3     
  24 C24           -3.8532    -3.2236    -2.5945 C.3     
  25 H25            0.6734     2.0806     0.4340 H       
  26 H26           -1.0015     1.9533     0.3988 H       
  27 H27           -1.0784    -2.8866    -0.1500 H       
  28 H28            3.5092    -1.5918    -0.2360 H       
  29 H29            5.1432    -3.4035    -0.5518 H       
  30 H30            1.9733    -6.2522    -0.7400 H       
  31 H31            0.3257    -4.4547    -0.4141 H       
  32 H32           -3.0229    -1.2459     0.6262 H       
  33 H33           -2.5990     0.4523     0.9499 H       
  34 H34           -4.2959    -1.3543    -3.9126 H       
  35 H35           -4.4161     1.0235    -4.5385 H       
  36 H36           -3.6461     2.7524    -2.9653 H       
  37 H37           -2.7663     2.1093    -0.7581 H       
  38 H38           -4.9032    -3.0331    -2.8169 H       
  39 H39           -3.2659    -3.1321    -3.5082 H       
  40 H40           -3.7440    -4.2305    -2.1917 H       
@<TRIPOS>BOND
   1    1    2 1
   2    1   25 1
   3    1   26 1
   4    2    3 2
   5    2    6 1
   6    3    4 1
   7    4    5 2
   8    4    7 1
   9    5    6 1
  10    5   27 1
  11    6   16 1
  12    7    8 ar
  13    7   12 ar
  14    8    9 ar
  15    8   28 1
  16    9   10 ar
  17    9   29 1
  18   10   11 ar
  19   10   13 1
  20   11   12 ar
  21   11   30 1
  22   12   31 1
  23   13   14 2
  24   13   15 2
  25   16   17 1
  26   16   32 1
  27   16   33 1
  28   17   18 ar
  29   17   22 ar
  30   18   19 ar
  31   18   23 1
  32   19   20 ar
  33   19   34 1
  34   20   21 ar
  35   20   35 1
  36   21   22 ar
  37   21   36 1
  38   22   37 1
  39   23   24 1
  40   24   38 1
  41   24   39 1
  42   24   40 1

#	End of record

