#	Name: ASD01917579
#	Creating user name:	WinNT
#	Creation time:	15. 06. 2019 20:09

#	Modifying user name:	WinNT
#	Modification time:	15. 06. 2019 20:09

#	Program:	/corina/corina34_cracker 3.40 0067  02.08.2006

@<TRIPOS>MOLECULE
ASD01917579
  28   30    0    0    0
SMALL
NO_CHARGES


@<TRIPOS>ATOM
   1 C1            -0.0161     1.3355     0.0094 C.2     
   2 N2             0.0021    -0.0041     0.0020 N.2     
   3 C3             1.1377    -0.6611    -0.0124 C.2     
   4 C4             2.3568     0.0336    -0.0203 C.2     
   5 C5             2.3511     1.3895    -0.0130 C.2     
   6 N6             1.1553     2.0488     0.0020 N.pl3   
   7 N7             0.8241     3.4083     0.0120 N.2     
   8 C8            -0.4848     3.5262     0.0249 C.2     
   9 C9            -1.0517     2.2609     0.0186 C.2     
  10 C10           -2.4680     6.4919    -1.3622 C.3     
  11 C11           -1.6279     5.2125    -1.3933 C.3     
  12 C12           -1.2464     4.8264     0.0391 C.3     
  13 C13           -2.5232     4.6634     0.8694 C.3     
  14 C14           -3.3288     5.9640     0.8132 C.3     
  15 O15           -3.6238     6.2815    -0.5485 O.3     
  16 Br16           3.9937    -0.9130    -0.0404 Br      
  17 H17            1.1341    -1.7411    -0.0178 H       
  18 H18            3.2798     1.9407    -0.0185 H       
  19 H19           -2.1079     2.0356     0.0216 H       
  20 H20           -1.8746     7.3065    -0.9470 H       
  21 H21           -2.7783     6.7478    -2.3752 H       
  22 H22           -2.2069     4.4074    -1.8456 H       
  23 H23           -0.7237     5.3846    -1.9773 H       
  24 H24           -0.6243     5.6087     0.4742 H       
  25 H25           -3.1204     3.8472     0.4629 H       
  26 H26           -2.2594     4.4428     1.9038 H       
  27 H27           -4.2592     5.8396     1.3672 H       
  28 H28           -2.7466     6.7717     1.2569 H       
@<TRIPOS>BOND
   1    1    2 1
   2    1    6 1
   3    1    9 2
   4    2    3 2
   5    3    4 1
   6    3   17 1
   7    4    5 2
   8    4   16 1
   9    5    6 1
  10    5   18 1
  11    6    7 1
  12    7    8 2
  13    8    9 1
  14    8   12 1
  15    9   19 1
  16   10   11 1
  17   10   15 1
  18   10   20 1
  19   10   21 1
  20   11   12 1
  21   11   22 1
  22   11   23 1
  23   12   13 1
  24   12   24 1
  25   13   14 1
  26   13   25 1
  27   13   26 1
  28   14   15 1
  29   14   27 1
  30   14   28 1

#	End of record

