#	Name: ASD03330044
#	Creating user name:	WinNT
#	Creation time:	15. 06. 2019 20:36

#	Modifying user name:	WinNT
#	Modification time:	15. 06. 2019 20:36

#	Program:	/corina/corina34_cracker 3.40 0067  02.08.2006

@<TRIPOS>MOLECULE
ASD03330044
  63   65    0    0    0
SMALL
NO_CHARGES


@<TRIPOS>ATOM
   1 N1            -0.0273     1.4536     0.0133 N.pl3   
   2 C2             0.0180     0.0729     0.0042 C.2     
   3 C3             1.3154    -0.3302    -0.0098 C.2     
   4 C4             2.1274     0.8297    -0.0098 C.ar    
   5 C5             3.5135     1.0338    -0.0212 C.ar    
   6 C6             4.0128     2.3045    -0.0181 C.ar    
   7 C7             3.1576     3.4007    -0.0036 C.ar    
   8 C8             1.7922     3.2251     0.0078 C.ar    
   9 C9             1.2595     1.9388     0.0049 C.ar    
  10 C10           -1.1517    -0.8184     0.0095 C.2     
  11 O11           -0.9970    -2.0250     0.0009 O.2     
  12 N12           -2.3951    -0.2985     0.0237 N.am    
  13 C13            1.8028    -1.7561    -0.0231 C.3     
  14 C14            1.9555    -2.2295    -1.4700 C.3     
  15 C15            2.4504    -3.6772    -1.4834 C.3     
  16 C16            2.6031    -4.1505    -2.9303 C.3     
  17 C17            3.0979    -5.5982    -2.9438 C.3     
  18 C18           -4.7528    -0.4594     0.6536 C.3     
  19 C19           -3.5603    -1.1865     0.0289 C.3     
  20 C20           -3.9026    -1.5871    -1.4075 C.3     
  21 O21           -4.3121    -0.4304    -2.1399 O.3     
  22 C22           -4.4629    -0.1735     2.1046 C.ar    
  23 C23           -3.8470     1.0111     2.4646 C.ar    
  24 C24           -3.5799     1.2763     3.7934 C.ar    
  25 C25           -3.9307     0.3514     4.7687 C.ar    
  26 C26           -4.5492    -0.8376     4.4035 C.ar    
  27 C27           -4.8185    -1.0939     3.0734 C.ar    
  28 N28           -3.6616     0.6162     6.1134 N.pl3   
  29 C29           -2.8950     1.8076     6.4863 C.3     
  30 C30           -4.1460    -0.2975     7.1511 C.3     
  31 Cl31           5.7307     2.5539    -0.0317 Cl      
  32 H32           -0.8340     1.9922     0.0202 H       
  33 H33            4.1853     0.1881    -0.0321 H       
  34 H34            3.5684     4.3995    -0.0010 H       
  35 H35            1.1361     4.0829     0.0193 H       
  36 H36           -2.5184     0.6636     0.0305 H       
  37 H37            2.7668    -1.8153     0.4822 H       
  38 H38            1.0825    -2.3911     0.4928 H       
  39 H39            0.9916    -2.1703    -1.9753 H       
  40 H40            2.6758    -1.5945    -1.9859 H       
  41 H41            3.4143    -3.7364    -0.9781 H       
  42 H42            1.7301    -4.3122    -0.9675 H       
  43 H43            1.6391    -4.0913    -3.4357 H       
  44 H44            3.3233    -3.5156    -3.4462 H       
  45 H45            4.0619    -5.6574    -2.4385 H       
  46 H46            2.3776    -6.2332    -2.4279 H       
  47 H47            3.2067    -5.9354    -3.9746 H       
  48 H48           -4.9236     0.4787     0.1255 H       
  49 H49           -5.6412    -1.0863     0.5772 H       
  50 H50           -3.3338    -2.0797     0.6111 H       
  51 H51           -3.0244    -2.0253    -1.8816 H       
  52 H52           -4.7124    -2.3166    -1.3980 H       
  53 H53           -4.5449    -0.6102    -3.0610 H       
  54 H54           -3.5743     1.7296     1.7058 H       
  55 H55           -3.0986     2.2015     4.0738 H       
  56 H56           -4.8232    -1.5588     5.1593 H       
  57 H57           -5.3036    -2.0160     2.7893 H       
  58 H58           -3.5767     2.6428     6.6469 H       
  59 H59           -2.3398     1.6102     7.4033 H       
  60 H60           -2.1980     2.0564     5.6860 H       
  61 H61           -4.7702    -1.0663     6.6957 H       
  62 H62           -3.2965    -0.7663     7.6478 H       
  63 H63           -4.7316     0.2603     7.8818 H       
@<TRIPOS>BOND
   1    1    2 1
   2    1    9 1
   3    1   32 1
   4    2    3 2
   5    2   10 1
   6    3    4 1
   7    3   13 1
   8    4    5 ar
   9    4    9 ar
  10    5    6 ar
  11    5   33 1
  12    6    7 ar
  13    6   31 1
  14    7    8 ar
  15    7   34 1
  16    8    9 ar
  17    8   35 1
  18   10   11 2
  19   10   12 am
  20   12   19 1
  21   12   36 1
  22   13   14 1
  23   13   37 1
  24   13   38 1
  25   14   15 1
  26   14   39 1
  27   14   40 1
  28   15   16 1
  29   15   41 1
  30   15   42 1
  31   16   17 1
  32   16   43 1
  33   16   44 1
  34   17   45 1
  35   17   46 1
  36   17   47 1
  37   18   19 1
  38   18   22 1
  39   18   48 1
  40   18   49 1
  41   19   20 1
  42   19   50 1
  43   20   21 1
  44   20   51 1
  45   20   52 1
  46   21   53 1
  47   22   23 ar
  48   22   27 ar
  49   23   24 ar
  50   23   54 1
  51   24   25 ar
  52   24   55 1
  53   25   26 ar
  54   25   28 1
  55   26   27 ar
  56   26   56 1
  57   27   57 1
  58   28   29 1
  59   28   30 1
  60   29   58 1
  61   29   59 1
  62   29   60 1
  63   30   61 1
  64   30   62 1
  65   30   63 1

#	End of record

