#	Name: ASD03091174
#	Creating user name:	WinNT
#	Creation time:	15. 06. 2019 20:30

#	Modifying user name:	WinNT
#	Modification time:	15. 06. 2019 20:30

#	Program:	/corina/corina34_cracker 3.40 0067  02.08.2006

@<TRIPOS>MOLECULE
ASD03091174
  55   56    0    0    0
SMALL
NO_CHARGES


@<TRIPOS>ATOM
   1 C1            -0.0167     1.3823     0.0096 C.ar    
   2 C2             0.0021    -0.0041     0.0020 C.ar    
   3 C3            -1.1955    -0.6939     0.0097 C.ar    
   4 N4            -2.3455    -0.0487     0.0241 N.ar    
   5 C5            -2.4014     1.2688     0.0313 C.ar    
   6 C6            -1.2448     2.0255     0.0306 C.ar    
   7 C7            -6.5004    -1.2884     3.4862 C.ar    
   8 N8            -5.7209    -2.1545     2.8688 N.ar    
   9 C9            -5.2949    -3.2513     3.4641 C.ar    
  10 C10           -5.6547    -3.5331     4.7684 C.ar    
  11 C11           -6.4734    -2.6457     5.4501 C.ar    
  12 C12           -6.9013    -1.5033     4.7913 C.ar    
  13 C13           -5.3180    -1.8914     1.4851 C.3     
  14 C14           -4.0144    -1.0904     1.4770 C.3     
  15 C15           -3.5936    -0.8156     0.0319 C.3     
  16 C16            1.2672     2.1712     0.0016 C.3     
  17 C17            2.0674     1.8305    -1.2572 C.3     
  18 C18            0.9466     3.6672     0.0127 C.3     
  19 C19            2.0912     1.8170     1.2412 C.3     
  20 C20           -6.8887    -2.9168     6.8732 C.3     
  21 C21           -5.6444    -3.0094     7.7587 C.3     
  22 C22           -7.7839    -1.7793     7.3687 C.3     
  23 C23           -7.6593    -4.2370     6.9368 C.3     
  24 H24            0.9407    -0.5382    -0.0101 H       
  25 H25           -1.1894    -1.7738     0.0035 H       
  26 H26           -3.3620     1.7622     0.0427 H       
  27 H27           -1.2971     3.1042     0.0365 H       
  28 H28           -6.8258    -0.3987     2.9675 H       
  29 H29           -4.6578    -3.9376     2.9260 H       
  30 H30           -5.3029    -4.4332     5.2504 H       
  31 H31           -7.5395    -0.7901     5.2917 H       
  32 H32           -5.1666    -2.8371     0.9647 H       
  33 H33           -6.0983    -1.3206     0.9817 H       
  34 H34           -4.1659    -0.1447     1.9973 H       
  35 H35           -3.2341    -1.6612     1.9803 H       
  36 H36           -4.3740    -0.2448    -0.4715 H       
  37 H37           -3.4422    -1.7613    -0.4885 H       
  38 H38            1.4803     2.0828    -2.1402 H       
  39 H39            2.9960     2.4011    -1.2630 H       
  40 H40            2.2958     0.7647    -1.2651 H       
  41 H41            0.3766     3.9100     0.9095 H       
  42 H42            1.8753     4.2379     0.0069 H       
  43 H43            0.3596     3.9196    -0.8704 H       
  44 H44            2.3196     0.7513     1.2333 H       
  45 H45            3.0199     2.3877     1.2354 H       
  46 H46            1.5212     2.0598     2.1379 H       
  47 H47           -5.0954    -2.0689     7.7133 H       
  48 H48           -5.9448    -3.2055     8.7880 H       
  49 H49           -5.0067    -3.8198     7.4057 H       
  50 H50           -8.6703    -1.7134     6.7378 H       
  51 H51           -8.0842    -1.9754     8.3980 H       
  52 H52           -7.2348    -0.8388     7.3234 H       
  53 H53           -7.0216    -5.0474     6.5838 H       
  54 H54           -7.9597    -4.4331     7.9661 H       
  55 H55           -8.5458    -4.1711     6.3060 H       
@<TRIPOS>BOND
   1    1    2 ar
   2    1   16 1
   3    1    6 ar
   4    2    3 ar
   5    2   24 1
   6    3    4 ar
   7    3   25 1
   8    4    5 ar
   9    4   15 1
  10    5    6 ar
  11    5   26 1
  12    6   27 1
  13    7    8 ar
  14    7   12 ar
  15    7   28 1
  16    8    9 ar
  17    8   13 1
  18    9   10 ar
  19    9   29 1
  20   10   11 ar
  21   10   30 1
  22   11   12 ar
  23   11   20 1
  24   12   31 1
  25   13   14 1
  26   13   32 1
  27   13   33 1
  28   14   15 1
  29   14   34 1
  30   14   35 1
  31   15   36 1
  32   15   37 1
  33   16   17 1
  34   16   18 1
  35   16   19 1
  36   17   38 1
  37   17   39 1
  38   17   40 1
  39   18   41 1
  40   18   42 1
  41   18   43 1
  42   19   44 1
  43   19   45 1
  44   19   46 1
  45   20   21 1
  46   20   22 1
  47   20   23 1
  48   21   47 1
  49   21   48 1
  50   21   49 1
  51   22   50 1
  52   22   51 1
  53   22   52 1
  54   23   53 1
  55   23   54 1
  56   23   55 1

#	End of record

