#	Name: ASD01180227
#	Creating user name:	WinNT
#	Creation time:	15. 06. 2019 19:07

#	Modifying user name:	WinNT
#	Modification time:	15. 06. 2019 19:07

#	Program:	/corina/corina34_cracker 3.40 0067  02.08.2006

@<TRIPOS>MOLECULE
ASD01180227
  53   55    0    0    0
SMALL
NO_CHARGES


@<TRIPOS>ATOM
   1 C1             0.1882     1.5069    -0.1886 C.2     
   2 C2             0.0910     0.0329    -0.1922 C.ar    
   3 C3             1.2285    -0.7554    -0.4084 C.ar    
   4 C4             1.0834    -2.1312    -0.4020 C.ar    
   5 C5            -0.1683    -2.6793    -0.1846 C.ar    
   6 N6            -1.2226    -1.9119     0.0158 N.ar    
   7 C7            -1.1349    -0.5980     0.0253 C.ar    
   8 O8             1.2612     2.0453    -0.3741 O.2     
   9 O9            -0.9140     2.2542     0.0149 O.3     
  10 C10           -0.3301    -4.1775    -0.1770 C.3     
  11 C11           -0.9850    -4.6132     1.1353 C.3     
  12 C12           -1.0570    -6.1406     1.1870 C.3     
  13 C13            0.3594    -6.7162     1.2458 C.3     
  14 O14           -1.1546    -4.5732    -1.2751 O.3     
  15 C15            0.6942    -5.0283    -4.9387 C.ar    
  16 C16           -0.6871    -5.1789    -4.8301 C.ar    
  17 C17           -1.3019    -5.0258    -3.6052 C.ar    
  18 C18           -0.5462    -4.7229    -2.4807 C.ar    
  19 C19            0.8299    -4.5723    -2.5857 C.ar    
  20 C20            1.4503    -4.7237    -3.8080 C.ar    
  21 C21            1.3594    -5.1983    -6.2539 C.ar    
  22 C22            2.7404    -5.0479    -6.3638 C.ar    
  23 C23            3.3539    -5.2072    -7.5898 C.ar    
  24 C24            2.6005    -5.5154    -8.7082 C.ar    
  25 C25            1.2294    -5.6657    -8.6049 C.ar    
  26 C26            0.6061    -5.5144    -7.3828 C.ar    
  27 C27            3.2761    -5.6875   -10.0442 C.3     
  28 F28            3.6452    -7.0266   -10.2111 F       
  29 F29            2.3935    -5.3164   -11.0643 F       
  30 F30            4.4168    -4.8793   -10.0976 F       
  31 C31           -1.8352    -6.5727     2.4314 C.3     
  32 H32            2.1938    -0.3010    -0.5759 H       
  33 H33            1.9382    -2.7708    -0.5655 H       
  34 H34           -2.0199    -0.0035     0.1978 H       
  35 H35           -0.8007     3.2145     0.0085 H       
  36 H36            0.6483    -4.6491    -0.2689 H       
  37 H37           -0.3934    -4.2487     1.9751 H       
  38 H38           -1.9919    -4.1998     1.1937 H       
  39 H39           -1.5630    -6.5108     0.2953 H       
  40 H40            0.8401    -6.4044     2.1730 H       
  41 H41            0.3110    -7.8046     1.2097 H       
  42 H42            0.9360    -6.3498     0.3965 H       
  43 H43           -1.2755    -5.4145    -5.7046 H       
  44 H44           -2.3723    -5.1424    -3.5205 H       
  45 H45            1.4152    -4.3360    -1.7094 H       
  46 H46            2.5208    -4.6068    -3.8891 H       
  47 H47            3.3295    -4.8069    -5.4912 H       
  48 H48            4.4241    -5.0905    -7.6762 H       
  49 H49            0.6460    -5.9064    -9.4814 H       
  50 H50           -0.4639    -5.6368    -7.3024 H       
  51 H51           -2.8442    -6.1626     2.3895 H       
  52 H52           -1.8865    -7.6609     2.4682 H       
  53 H53           -1.3293    -6.2024     3.3231 H       
@<TRIPOS>BOND
   1    1    2 1
   2    1    8 2
   3    1    9 1
   4    2    3 ar
   5    2    7 ar
   6    3    4 ar
   7    3   32 1
   8    4    5 ar
   9    4   33 1
  10    5    6 ar
  11    5   10 1
  12    6    7 ar
  13    7   34 1
  14    9   35 1
  15   10   11 1
  16   10   14 1
  17   10   36 1
  18   11   12 1
  19   11   37 1
  20   11   38 1
  21   12   13 1
  22   12   31 1
  23   12   39 1
  24   13   40 1
  25   13   41 1
  26   13   42 1
  27   14   18 1
  28   15   16 ar
  29   15   20 ar
  30   15   21 1
  31   16   17 ar
  32   16   43 1
  33   17   18 ar
  34   17   44 1
  35   18   19 ar
  36   19   20 ar
  37   19   45 1
  38   20   46 1
  39   21   22 ar
  40   21   26 ar
  41   22   23 ar
  42   22   47 1
  43   23   24 ar
  44   23   48 1
  45   24   25 ar
  46   24   27 1
  47   25   26 ar
  48   25   49 1
  49   26   50 1
  50   27   28 1
  51   27   29 1
  52   27   30 1
  53   31   51 1
  54   31   52 1
  55   31   53 1

#	End of record

