#	Name: ASD01940407
#	Creating user name:	WinNT
#	Creation time:	15. 06. 2019 20:12

#	Modifying user name:	WinNT
#	Modification time:	15. 06. 2019 20:12

#	Program:	/corina/corina34_cracker 3.40 0067  02.08.2006

@<TRIPOS>MOLECULE
ASD01940407
  49   52    0    0    0
SMALL
NO_CHARGES


@<TRIPOS>ATOM
   1 S1             1.6636     2.4736     2.6904 S.3     
   2 N2             2.1072     0.9736     3.3456 N.2     
   3 C3             2.7537     0.3131     2.4469 C.2     
   4 C4             2.9601     0.9018     1.1884 C.ar    
   5 C5             2.3963     2.1883     1.1089 C.ar    
   6 C6             2.4885     2.9462    -0.0560 C.ar    
   7 C7             3.1554     2.4162    -1.1682 C.ar    
   8 C8             3.7185     1.1313    -1.0889 C.ar    
   9 C9             3.6279     0.3958     0.0443 C.ar    
  10 C10            3.2649     3.1987    -2.4099 C.2     
  11 O11            2.7598     4.3031    -2.4793 O.2     
  12 N12            3.9247     2.6917    -3.4701 N.am    
  13 O13            4.0300     3.4445    -4.6647 O.3     
  14 C14            4.7552     2.7857    -5.7049 C.3     
  15 C15            4.8055     3.6862    -6.9408 C.3     
  16 C16            5.6858     3.0361    -8.0101 C.3     
  17 O17            5.8276     3.9283    -9.1173 O.3     
  18 O18            3.4840     3.8636    -7.4550 O.3     
  19 N19            1.9252     4.2131    -0.1144 N.pl3   
  20 C20            0.6381     4.3828    -0.6342 C.ar    
  21 C21            0.0244     5.6305    -0.5837 C.ar    
  22 C22           -1.2481     5.7936    -1.0987 C.ar    
  23 C23           -1.9102     4.7180    -1.6628 C.ar    
  24 C24           -1.3026     3.4773    -1.7137 C.ar    
  25 C25           -0.0283     3.3081    -1.2069 C.ar    
  26 F26            0.6708     6.6807    -0.0319 F       
  27 C27           -3.2975     4.8991    -2.2229 C.3     
  28 C28           -3.5048     4.5961    -3.7082 C.3     
  29 C29           -4.0574     3.6411    -2.6483 C.3     
  30 H30            3.1308    -0.6766     2.6583 H       
  31 H31            4.2325     0.7232    -1.9466 H       
  32 H32            4.0704    -0.5888     0.0774 H       
  33 H33            4.3274     1.8110    -3.4147 H       
  34 H34            5.7698     2.5780    -5.3652 H       
  35 H35            4.2578     1.8493    -5.9577 H       
  36 H36            5.2221     4.6556    -6.6673 H       
  37 H37            6.6679     2.8197    -7.5898 H       
  38 H38            5.2226     2.1089    -8.3475 H       
  39 H39            6.3748     3.5807    -9.8349 H       
  40 H40            3.0510     3.0404    -7.7193 H       
  41 H41            2.4243     4.9810     0.2053 H       
  42 H42           -1.7259     6.7614    -1.0603 H       
  43 H43           -1.8232     2.6398    -2.1543 H       
  44 H44            0.4469     2.3393    -1.2518 H       
  45 H45           -3.8765     5.7149    -1.7900 H       
  46 H46           -4.2204     5.2124    -4.2524 H       
  47 H47           -2.6378     4.2659    -4.2803 H       
  48 H48           -3.5538     2.6825    -2.5231 H       
  49 H49           -5.1365     3.6290    -2.4952 H       
@<TRIPOS>BOND
   1    1    2 1
   2    1    5 1
   3    2    3 2
   4    3    4 1
   5    3   30 1
   6    4    5 ar
   7    4    9 ar
   8    5    6 ar
   9    6    7 ar
  10    6   19 1
  11    7    8 ar
  12    7   10 1
  13    8    9 ar
  14    8   31 1
  15    9   32 1
  16   10   11 2
  17   10   12 am
  18   12   13 1
  19   12   33 1
  20   13   14 1
  21   14   15 1
  22   14   34 1
  23   14   35 1
  24   15   16 1
  25   15   18 1
  26   15   36 1
  27   16   17 1
  28   16   37 1
  29   16   38 1
  30   17   39 1
  31   18   40 1
  32   19   20 1
  33   19   41 1
  34   20   21 ar
  35   20   25 ar
  36   21   22 ar
  37   21   26 1
  38   22   23 ar
  39   22   42 1
  40   23   24 ar
  41   23   27 1
  42   24   25 ar
  43   24   43 1
  44   25   44 1
  45   27   28 1
  46   27   29 1
  47   27   45 1
  48   28   29 1
  49   28   46 1
  50   28   47 1
  51   29   48 1
  52   29   49 1

#	End of record

