#	Name: ASD09740182
#	Creating user name:	WinNT
#	Creation time:	15. 06. 2019 21:22

#	Modifying user name:	WinNT
#	Modification time:	15. 06. 2019 21:22

#	Program:	/corina/corina34_cracker 3.40 0067  02.08.2006

@<TRIPOS>MOLECULE
ASD09740182
  33   35    0    0    0
SMALL
NO_CHARGES


@<TRIPOS>ATOM
   1 O1            -0.0144     1.2086     0.0087 O.3     
   2 N2             0.0021    -0.0041     0.0020 N.2     
   3 C3             1.2407     1.6828    -0.0008 C.2     
   4 N4             2.0451     0.6377    -0.0140 N.2     
   5 C5             1.2351    -0.4415    -0.0121 C.2     
   6 C6             1.6638    -1.8627    -0.0234 C.ar    
   7 C7             1.6452     3.1064     0.0026 C.ar    
   8 C8             3.0195    -2.1832    -0.0376 C.ar    
   9 C9             0.7120    -2.8792    -0.0141 C.ar    
  10 C10            1.1183    -4.2033    -0.0247 C.ar    
  11 C11            2.4711    -4.5144    -0.0447 C.ar    
  12 C12            3.4160    -3.5058    -0.0481 C.ar    
  13 C13            0.6867     4.1260     0.0173 C.ar    
  14 C14            1.1064     5.4404     0.0204 C.ar    
  15 N15            2.3905     5.7423     0.0098 N.ar    
  16 C16            3.3282     4.8125    -0.0042 C.ar    
  17 C17            2.9952     3.4695    -0.0029 C.ar    
  18 C18            2.9106    -5.9558    -0.0557 C.3     
  19 O19            0.1924    -5.1982    -0.0152 O.3     
  20 C20           -1.1815    -4.8057     0.0058 C.3     
  21 F21            4.6289     5.1773    -0.0151 F       
  22 H22            3.7603    -1.3973    -0.0407 H       
  23 H23           -0.3400    -2.6357     0.0018 H       
  24 H24            4.4672    -3.7528    -0.0640 H       
  25 H25           -0.3666     3.8874     0.0257 H       
  26 H26            0.3732     6.2333     0.0313 H       
  27 H27            3.7663     2.7134    -0.0141 H       
  28 H28            3.0022    -6.2998    -1.0859 H       
  29 H29            3.8749    -6.0455     0.4444 H       
  30 H30            2.1725    -6.5647     0.4664 H       
  31 H31           -1.8131    -5.6940     0.0115 H       
  32 H32           -1.3770    -4.2151     0.9008 H       
  33 H33           -1.4023    -4.2085    -0.8790 H       
@<TRIPOS>BOND
   1    1    2 1
   2    1    3 1
   3    2    5 2
   4    3    4 2
   5    3    7 1
   6    4    5 1
   7    5    6 1
   8    6    8 ar
   9    6    9 ar
  10    7   13 ar
  11    7   17 ar
  12    8   12 ar
  13    8   22 1
  14    9   10 ar
  15    9   23 1
  16   10   11 ar
  17   10   19 1
  18   11   12 ar
  19   11   18 1
  20   12   24 1
  21   13   14 ar
  22   13   25 1
  23   14   15 ar
  24   14   26 1
  25   15   16 ar
  26   16   17 ar
  27   16   21 1
  28   17   27 1
  29   18   28 1
  30   18   29 1
  31   18   30 1
  32   19   20 1
  33   20   31 1
  34   20   32 1
  35   20   33 1

#	End of record

