#	Name: ASD03331003
#	Creating user name:	WinNT
#	Creation time:	15. 06. 2019 20:38

#	Modifying user name:	WinNT
#	Modification time:	15. 06. 2019 20:38

#	Program:	/corina/corina34_cracker 3.40 0067  02.08.2006

@<TRIPOS>MOLECULE
ASD03331003
  67   70    0    0    0
SMALL
NO_CHARGES


@<TRIPOS>ATOM
   1 N1            -0.8740     1.7431    -0.4498 N.pl3   
   2 C2            -0.6931     0.4226    -0.1808 C.2     
   3 C3             0.6226    -0.2342     0.1462 C.3     
   4 N4             1.3233     0.5685     1.1607 N.3     
   5 C5             2.1591     1.5971     0.5385 C.3     
   6 C6             1.5206     2.1155    -0.7469 C.3     
   7 C7             0.1727     2.7687    -0.4294 C.3     
   8 C8            -2.1978     1.9262    -0.7253 C.2     
   9 N9            -2.8125     0.7721    -0.6138 N.2     
  10 C10           -1.9120    -0.1768    -0.2758 C.2     
  11 C11           -2.1978    -1.6047    -0.0508 C.2     
  12 O12           -1.2975    -2.3650     0.2505 O.2     
  13 N13           -3.4568    -2.0684    -0.1788 N.am    
  14 C14            2.1176    -0.2870     2.0524 C.3     
  15 C15           -2.8339     3.2111    -1.0886 C.ar    
  16 C16           -3.7093     3.2784    -2.1759 C.ar    
  17 C17           -4.2997     4.4830    -2.5090 C.ar    
  18 C18           -4.0247     5.6185    -1.7690 C.ar    
  19 C19           -3.1588     5.5573    -0.6917 C.ar    
  20 C20           -2.5672     4.3601    -0.3441 C.ar    
  21 C21           -2.8654     6.8004     0.1080 C.3     
  22 F22           -3.5792     7.8782    -0.4268 F       
  23 F23           -3.2496     6.6007     1.4382 F       
  24 F24           -1.4949     7.0764     0.0548 F       
  25 F25           -3.9774     2.1695    -2.8995 F       
  26 C26           -4.9829    -3.8776    -0.7145 C.2     
  27 C27           -3.7409    -3.4881     0.0449 C.3     
  28 C28           -3.9581    -3.7354     1.5391 C.3     
  29 C29           -4.3885    -5.1871     1.7584 C.3     
  30 O30           -5.8612    -3.0621    -0.8996 O.2     
  31 C31           -2.6545    -3.4702     2.2948 C.3     
  32 C32           -5.0486    -2.7962     2.0582 C.3     
  33 N33           -5.1175    -5.1322    -1.1880 N.am    
  34 C34           -6.1701    -5.8988    -1.8716 C.3     
  35 C35           -5.5650    -7.1705    -1.2611 C.3     
  36 C36           -4.2741    -6.3352    -1.2543 C.3     
  37 F37           -6.0557    -7.4860     0.0105 F       
  38 F38           -5.5322    -8.2652    -2.1316 F       
  39 H39            0.4427    -1.2364     0.5350 H       
  40 H40            1.2329    -0.2959    -0.7549 H       
  41 H41            2.2852     2.4258     1.2352 H       
  42 H42            3.1362     1.1730     0.3073 H       
  43 H43            2.1800     2.8507    -1.2081 H       
  44 H44            1.3674     1.2849    -1.4359 H       
  45 H45           -0.0484     3.5300    -1.1775 H       
  46 H46            0.2140     3.2278     0.5583 H       
  47 H47           -4.1748    -1.4621    -0.4191 H       
  48 H48            2.8095    -0.8858     1.4601 H       
  49 H49            2.6799     0.3361     2.7479 H       
  50 H50            1.4528    -0.9460     2.6109 H       
  51 H51           -4.9765     4.5376    -3.3488 H       
  52 H52           -4.4879     6.5577    -2.0335 H       
  53 H53           -1.8954     4.3138     0.5003 H       
  54 H54           -2.8991    -4.0864    -0.3038 H       
  55 H55           -3.5995    -5.8559     1.4145 H       
  56 H56           -4.5706    -5.3557     2.8198 H       
  57 H57           -5.3020    -5.3840     1.1973 H       
  58 H58           -2.3479    -2.4360     2.1385 H       
  59 H59           -2.8092    -3.6464     3.3593 H       
  60 H60           -1.8775    -4.1393     1.9249 H       
  61 H61           -5.9774    -2.9851     1.5199 H       
  62 H62           -5.2034    -2.9724     3.1227 H       
  63 H63           -4.7420    -1.7619     1.9020 H       
  64 H64           -7.1736    -5.6779    -1.5080 H       
  65 H65           -6.0974    -5.8621    -2.9585 H       
  66 H66           -3.7016    -6.4136    -2.1786 H       
  67 H67           -3.6624    -6.4860    -0.3649 H       
@<TRIPOS>BOND
   1    1    2 1
   2    1    7 1
   3    1    8 1
   4    2    3 1
   5    2   10 2
   6    3    4 1
   7    3   39 1
   8    3   40 1
   9    4    5 1
  10    4   14 1
  11    5    6 1
  12    5   41 1
  13    5   42 1
  14    6    7 1
  15    6   43 1
  16    6   44 1
  17    7   45 1
  18    7   46 1
  19    8    9 2
  20    8   15 1
  21    9   10 1
  22   10   11 1
  23   11   12 2
  24   11   13 am
  25   13   27 1
  26   13   47 1
  27   14   48 1
  28   14   49 1
  29   14   50 1
  30   15   16 ar
  31   15   20 ar
  32   16   17 ar
  33   16   25 1
  34   17   18 ar
  35   17   51 1
  36   18   19 ar
  37   18   52 1
  38   19   20 ar
  39   19   21 1
  40   20   53 1
  41   21   22 1
  42   21   23 1
  43   21   24 1
  44   26   30 2
  45   26   33 am
  46   26   27 1
  47   27   28 1
  48   27   54 1
  49   28   29 1
  50   28   31 1
  51   28   32 1
  52   29   55 1
  53   29   56 1
  54   29   57 1
  55   31   58 1
  56   31   59 1
  57   31   60 1
  58   32   61 1
  59   32   62 1
  60   32   63 1
  61   33   34 1
  62   33   36 1
  63   34   35 1
  64   34   64 1
  65   34   65 1
  66   35   36 1
  67   35   37 1
  68   35   38 1
  69   36   66 1
  70   36   67 1

#	End of record

