#	Name: ASD01883383
#	Creating user name:	WinNT
#	Creation time:	15. 06. 2019 19:46

#	Modifying user name:	WinNT
#	Modification time:	15. 06. 2019 19:46

#	Program:	/corina/corina34_cracker 3.40 0067  02.08.2006

@<TRIPOS>MOLECULE
ASD01883383
  54   56    0    0    0
SMALL
NO_CHARGES


@<TRIPOS>ATOM
   1 N1             0.0021     1.3082    -0.0152 N.am    
   2 C2            -0.7518     1.3829     1.0973 C.2     
   3 C3            -1.9997     0.7182     1.1499 C.2     
   4 C4            -2.4239    -0.0108     0.0261 C.2     
   5 C5            -1.5912    -0.0513    -1.1076 C.2     
   6 C6            -0.4117     0.6073    -1.1028 C.2     
   7 O7            -0.3596     2.0222     2.0588 O.2     
   8 C8            -2.8143     0.7866     2.3257 C.1     
   9 N9            -3.4606     0.8409     3.2584 N.1     
  10 C10            1.2919     2.0017    -0.0562 C.3     
  11 C11            2.3909     1.0649     0.4490 C.3     
  12 C12            3.7380     1.7891     0.4061 C.3     
  13 N13           -3.6309    -0.6732     0.0341 N.pl3   
  14 C14           -4.8964     0.0654     0.1606 C.3     
  15 C15           -5.8354    -0.3813    -0.9650 C.3     
  16 N16           -5.9647    -1.8444    -0.9388 N.3     
  17 C17           -4.6754    -2.4981    -1.1997 C.3     
  18 C18           -3.6892    -2.1376    -0.0898 C.3     
  19 C19            3.7193     2.9596     1.3913 C.3     
  20 C20            4.8531     0.8153     0.7922 C.3     
  21 C21           -6.9348    -2.2760    -1.8405 C.ar    
  22 C22           -7.2132    -3.6369    -1.9703 C.ar    
  23 C23           -8.1856    -4.0165    -2.8799 C.ar    
  24 C24           -8.8255    -3.0159    -3.6087 C.ar    
  25 N25           -8.4962    -1.7500    -3.4192 N.ar    
  26 N26           -7.5989    -1.3959    -2.5726 N.ar    
  27 O27           -9.7855    -3.3410    -4.5124 O.3     
  28 C28          -10.3988    -2.2637    -5.2233 C.3     
  29 H29           -1.8967    -0.6057    -1.9826 H       
  30 H30            0.2190     0.5690    -1.9787 H       
  31 H31            1.5116     2.3000    -1.0814 H       
  32 H32            1.2488     2.8869     0.5784 H       
  33 H33            2.1712     0.7666     1.4741 H       
  34 H34            2.4340     0.1797    -0.1856 H       
  35 H35            3.9165     2.1650    -0.6013 H       
  36 H36           -5.3527    -0.1526     1.1262 H       
  37 H37           -4.7061     1.1353     0.0757 H       
  38 H38           -6.8159     0.0731    -0.8226 H       
  39 H39           -5.4256    -0.0696    -1.9257 H       
  40 H40           -4.8145    -3.5788    -1.2275 H       
  41 H41           -4.2817    -2.1568    -2.1571 H       
  42 H42           -2.7011    -2.5253    -0.3378 H       
  43 H43           -4.0273    -2.5657     0.8538 H       
  44 H44            4.6789     3.4755     1.3608 H       
  45 H45            2.9248     3.6533     1.1163 H       
  46 H46            3.5408     2.5837     2.3988 H       
  47 H47            4.8664    -0.0185     0.0903 H       
  48 H48            5.8128     1.3313     0.7616 H       
  49 H49            4.6746     0.4394     1.7996 H       
  50 H50           -6.6861    -4.3717    -1.3798 H       
  51 H51           -8.4402    -5.0566    -3.0204 H       
  52 H52          -10.8795    -1.5884    -4.5155 H       
  53 H53           -9.6394    -1.7203    -5.7854 H       
  54 H54          -11.1454    -2.6606    -5.9111 H       
@<TRIPOS>BOND
   1    1    2 am
   2    1   10 1
   3    1    6 1
   4    2    3 1
   5    2    7 2
   6    3    4 2
   7    3    8 1
   8    4    5 1
   9    4   13 1
  10    5    6 2
  11    5   29 1
  12    6   30 1
  13    8    9 3
  14   10   11 1
  15   10   31 1
  16   10   32 1
  17   11   12 1
  18   11   33 1
  19   11   34 1
  20   12   19 1
  21   12   20 1
  22   12   35 1
  23   13   14 1
  24   13   18 1
  25   14   15 1
  26   14   36 1
  27   14   37 1
  28   15   16 1
  29   15   38 1
  30   15   39 1
  31   16   17 1
  32   16   21 1
  33   17   18 1
  34   17   40 1
  35   17   41 1
  36   18   42 1
  37   18   43 1
  38   19   44 1
  39   19   45 1
  40   19   46 1
  41   20   47 1
  42   20   48 1
  43   20   49 1
  44   21   22 ar
  45   21   26 ar
  46   22   23 ar
  47   22   50 1
  48   23   24 ar
  49   23   51 1
  50   24   25 ar
  51   24   27 1
  52   25   26 ar
  53   27   28 1
  54   28   52 1
  55   28   53 1
  56   28   54 1

#	End of record

