#	Name: ASD01871022
#	Creating user name:	WinNT
#	Creation time:	15. 06. 2019 19:39

#	Modifying user name:	WinNT
#	Modification time:	15. 06. 2019 19:39

#	Program:	/corina/corina34_cracker 3.40 0067  02.08.2006

@<TRIPOS>MOLECULE
ASD01871022
  33   35    0    0    0
SMALL
NO_CHARGES


@<TRIPOS>ATOM
   1 C1            -0.0162     1.3422     0.0094 C.2     
   2 C2             0.0021    -0.0041     0.0020 C.2     
   3 S3            -1.6655    -0.5713     0.0160 S.3     
   4 C4            -2.2297     1.0419     0.0304 C.2     
   5 N5            -1.2350     1.8683     0.0296 N.2     
   6 O6            -3.5357     1.4040     0.0457 O.3     
   7 C7            -4.4697     0.4198     0.0504 C.ar    
   8 C8            -5.8183     0.7514     0.0660 C.ar    
   9 N9            -4.0871    -0.8465     0.0348 N.ar    
  10 C10           -4.9618    -1.8340     0.0387 C.ar    
  11 C11           -6.3187    -1.5776     0.0590 C.ar    
  12 C12           -6.7610    -0.2621     0.0707 C.ar    
  13 C13            1.2174     2.1654     0.0021 C.2     
  14 C14            1.3209     3.6318     0.0090 C.2     
  15 N15            2.6141     3.9054    -0.0011 N.2     
  16 N16            3.3032     2.8239    -0.0130 N.pl3   
  17 C17            2.5126     1.7311    -0.0066 C.2     
  18 C18            0.2144     4.5953     0.0235 C.2     
  19 C19           -4.4743    -3.2598     0.0203 C.3     
  20 C20            0.5032     6.0743     0.0289 C.3     
  21 O21           -0.9329     4.2012     0.0312 O.2     
  22 H22            0.8843    -0.6269    -0.0106 H       
  23 H23           -6.1273     1.7862     0.0746 H       
  24 H24           -7.0281    -2.3920     0.0614 H       
  25 H25           -7.8166    -0.0345     0.0866 H       
  26 H26            4.2727     2.7953    -0.0218 H       
  27 H27            2.8426     0.7027    -0.0136 H       
  28 H28           -4.3426    -3.6120     1.0434 H       
  29 H29           -5.2059    -3.8874    -0.4887 H       
  30 H30           -3.5218    -3.3114    -0.5071 H       
  31 H31            1.5814     6.2341     0.0205 H       
  32 H32            0.0609     6.5341    -0.8549 H       
  33 H33            0.0761     6.5246     0.9250 H       
@<TRIPOS>BOND
   1    1    2 2
   2    1   13 1
   3    1    5 1
   4    2    3 1
   5    2   22 1
   6    3    4 1
   7    4    5 2
   8    4    6 1
   9    6    7 1
  10    7    8 ar
  11    7    9 ar
  12    8   12 ar
  13    8   23 1
  14    9   10 ar
  15   10   11 ar
  16   10   19 1
  17   11   12 ar
  18   11   24 1
  19   12   25 1
  20   13   14 1
  21   13   17 2
  22   14   15 2
  23   14   18 1
  24   15   16 1
  25   16   17 1
  26   16   26 1
  27   17   27 1
  28   18   20 1
  29   18   21 2
  30   19   28 1
  31   19   29 1
  32   19   30 1
  33   20   31 1
  34   20   32 1
  35   20   33 1

#	End of record

