#	Name: ASD00431498
#	Creating user name:	WinNT
#	Creation time:	15. 06. 2019 18:35

#	Modifying user name:	WinNT
#	Modification time:	15. 06. 2019 18:35

#	Program:	/corina/corina34_cracker 3.40 0067  02.08.2006

@<TRIPOS>MOLECULE
ASD00431498
  61   65    0    0    0
SMALL
NO_CHARGES


@<TRIPOS>ATOM
   1 C1            -0.0109     1.5783     0.2714 C.2     
   2 N2             0.0235     0.2339     0.2390 N.am    
   3 C3             1.2906    -0.2177     0.2331 C.2     
   4 C4             2.2047     0.9435     0.2649 C.ar    
   5 C5             3.5824     1.0908     0.2743 C.ar    
   6 C6             4.1377     2.3604     0.3076 C.ar    
   7 C7             3.3266     3.4795     0.3315 C.ar    
   8 C8             1.9468     3.3476     0.3224 C.ar    
   9 C9             1.3777     2.0847     0.2892 C.ar    
  10 O10           -1.0148     2.2618     0.2794 O.2     
  11 O11            1.6273    -1.3843     0.2069 O.2     
  12 C12           -1.1629    -0.6252     0.2140 C.3     
  13 C13           -1.1482    -1.4781    -1.0562 C.3     
  14 O14           -0.1114    -2.2135     1.9029 O.3     
  15 N15           -0.4046    -2.8512     2.8873 N.2     
  16 C16           -1.6677    -2.6857     3.2052 C.2     
  17 C17           -2.2051    -1.7929     2.2328 C.2     
  18 C18           -1.1573    -1.5248     1.4231 C.2     
  19 S19           -3.6668    -2.5466     5.2865 S.3     
  20 C20           -3.7982    -3.9531     6.2492 C.2     
  21 N21           -2.9487    -4.8505     5.8535 N.2     
  22 C22           -2.1769    -4.5377     4.8359 C.2     
  23 C23           -2.3860    -3.3001     4.3401 C.2     
  24 O24           -4.6651    -4.1085     7.2779 O.3     
  25 C25           -4.7234    -5.3234     7.8855 C.ar    
  26 C26           -3.6287    -5.7985     8.5930 C.ar    
  27 C27           -3.6881    -7.0326     9.2101 C.ar    
  28 C28           -4.8421    -7.7971     9.1226 C.ar    
  29 C29           -5.9367    -7.3222     8.4152 C.ar    
  30 C30           -5.8796    -6.0856     7.8028 C.ar    
  31 O31           -4.9003    -9.0124     9.7298 O.3     
  32 C32           -3.6951    -9.4993    10.3234 C.3     
  33 C33           -3.6637    -9.1138    11.8037 C.3     
  34 C34           -3.6411   -11.0227    10.1919 C.3     
  35 C35           -3.6147    -1.2696     2.1314 C.3     
  36 C36           -3.7348     0.0300     2.9298 C.3     
  37 H37            4.2210     0.2200     0.2561 H       
  38 H38            5.2114     2.4761     0.3154 H       
  39 H39            3.7711     4.4634     0.3578 H       
  40 H40            1.3180     4.2255     0.3415 H       
  41 H41           -2.0601    -0.0063     0.2257 H       
  42 H42           -1.1523    -0.8275    -1.9307 H       
  43 H43           -0.2511    -2.0970    -1.0680 H       
  44 H44           -2.0309    -2.1173    -1.0749 H       
  45 H45           -1.4383    -5.2138     4.4312 H       
  46 H46           -2.7300    -5.2034     8.6609 H       
  47 H47           -2.8357    -7.4026     9.7606 H       
  48 H48           -6.8352    -7.9177     8.3468 H       
  49 H49           -6.7335    -5.7139     7.2558 H       
  50 H50           -2.8366    -9.0602     9.8153 H       
  51 H51           -4.5222    -9.5530    12.3118 H       
  52 H52           -2.7444    -9.4853    12.2565 H       
  53 H53           -3.7021    -8.0285    11.8974 H       
  54 H54           -3.6635   -11.2974     9.1373 H       
  55 H55           -2.7218   -11.3942    10.6447 H       
  56 H56           -4.4996   -11.4619    10.7000 H       
  57 H57           -3.8566    -1.0775     1.0861 H       
  58 H58           -4.3066    -2.0090     2.5346 H       
  59 H59           -3.4928    -0.1620     3.9752 H       
  60 H60           -3.0428     0.7694     2.5267 H       
  61 H61           -4.7543     0.4086     2.8565 H       
@<TRIPOS>BOND
   1    1    2 am
   2    1    9 1
   3    1   10 2
   4    2    3 am
   5    2   12 1
   6    3    4 1
   7    3   11 2
   8    4    5 ar
   9    4    9 ar
  10    5    6 ar
  11    5   37 1
  12    6    7 ar
  13    6   38 1
  14    7    8 ar
  15    7   39 1
  16    8    9 ar
  17    8   40 1
  18   12   13 1
  19   12   18 1
  20   12   41 1
  21   13   42 1
  22   13   43 1
  23   13   44 1
  24   14   15 1
  25   14   18 1
  26   15   16 2
  27   16   17 1
  28   16   23 1
  29   17   18 2
  30   17   35 1
  31   19   20 1
  32   19   23 1
  33   20   21 2
  34   20   24 1
  35   21   22 1
  36   22   23 2
  37   22   45 1
  38   24   25 1
  39   25   26 ar
  40   25   30 ar
  41   26   27 ar
  42   26   46 1
  43   27   28 ar
  44   27   47 1
  45   28   29 ar
  46   28   31 1
  47   29   30 ar
  48   29   48 1
  49   30   49 1
  50   31   32 1
  51   32   33 1
  52   32   34 1
  53   32   50 1
  54   33   51 1
  55   33   52 1
  56   33   53 1
  57   34   54 1
  58   34   55 1
  59   34   56 1
  60   35   36 1
  61   35   57 1
  62   35   58 1
  63   36   59 1
  64   36   60 1
  65   36   61 1

#	End of record

