#	Name: ASD01148503
#	Creating user name:	WinNT
#	Creation time:	15. 06. 2019 19:02

#	Modifying user name:	WinNT
#	Modification time:	15. 06. 2019 19:02

#	Program:	/corina/corina34_cracker 3.40 0067  02.08.2006

@<TRIPOS>MOLECULE
ASD01148503
  56   59    0    0    0
SMALL
NO_CHARGES


@<TRIPOS>ATOM
   1 C1            -0.0180     1.4362     0.0451 C.ar    
   2 C2            -0.0166     0.0527     0.0405 C.ar    
   3 C3             1.1824    -0.6372     0.0176 C.ar    
   4 C4             2.3780     0.0559    -0.0008 C.ar    
   5 C5             2.3760     1.4383     0.0038 C.ar    
   6 C6             1.1783     2.1283     0.0267 C.ar    
   7 C7             3.6800     2.1935    -0.0157 C.3     
   8 O8             4.6901     1.4604    -0.7379 O.3     
   9 C9             3.5604     3.4832    -0.8622 C.3     
  10 C10            4.0470     3.0293    -2.2254 C.2     
  11 N11            4.6599     1.9008    -2.0811 N.2     
  12 C12            3.8535     3.7504    -3.4951 C.ar    
  13 C13            4.3767     3.1972    -4.7419 C.ar    
  14 C14            3.1680     4.9571    -3.5157 C.ar    
  15 C15            2.9717     5.6554    -4.6940 C.ar    
  16 C16            3.4519     5.1795    -5.9061 C.ar    
  17 C17            4.1761     3.9115    -5.9468 C.ar    
  18 C18            3.2274     5.9459    -7.1455 C.2     
  19 O19            3.7395     5.5817    -8.1867 O.2     
  20 N20            2.4548     7.0500    -7.1245 N.am    
  21 C21            4.6778     3.3929    -7.1472 C.ar    
  22 C22            5.0691     1.9799    -4.7693 C.ar    
  23 C23            4.1462     2.5122     1.4062 C.3     
  24 F24            4.3115     1.3209     2.1208 F       
  25 F25            5.3645     3.1980     1.3548 F       
  26 F26            3.1890     3.3092     2.0432 F       
  27 Cl27          -1.5187    -0.8172     0.0641 Cl      
  28 C28            2.2318     7.8114    -8.3560 C.3     
  29 C29            1.3396     8.9902    -8.0632 C.2     
  30 N30            0.9965     9.8380    -9.0531 N.am    
  31 O31            0.9304     9.1759    -6.9367 O.2     
  32 C32            0.1292    10.9838    -8.7685 C.3     
  33 C33           -0.1037    11.7791   -10.0546 C.3     
  34 F34           -0.7151    10.9568   -11.0071 F       
  35 F35           -0.9319    12.8734    -9.7828 F       
  36 F36            1.1229    12.2343   -10.5500 F       
  37 C37            5.5401     1.4998    -5.9551 C.ar    
  38 C38            5.3475     2.2055    -7.1399 C.ar    
  39 H39           -0.9537     1.9754     0.0585 H       
  40 H40            1.1841    -1.7172     0.0144 H       
  41 H41            3.3141    -0.4825    -0.0183 H       
  42 H42            1.1773     3.2083     0.0302 H       
  43 H43            2.5243     3.8180    -0.9130 H       
  44 H44            4.2028     4.2685    -0.4638 H       
  45 H45            2.7789     5.3594    -2.5921 H       
  46 H46            2.4329     6.5911    -4.6700 H       
  47 H47            2.0464     7.3404    -6.2940 H       
  48 H48            4.5346     3.9303    -8.0731 H       
  49 H49            5.2291     1.4252    -3.8565 H       
  50 H50            3.1874     8.1661    -8.7420 H       
  51 H51            1.7554     7.1707    -9.0981 H       
  52 H52            1.3238     9.6894    -9.9541 H       
  53 H53           -0.8264    10.6292    -8.3825 H       
  54 H54            0.6056    11.6245    -8.0264 H       
  55 H55            6.0738     0.5612    -5.9752 H       
  56 H56            5.7339     1.8064    -8.0661 H       
@<TRIPOS>BOND
   1    1    2 ar
   2    1    6 ar
   3    1   39 1
   4    2    3 ar
   5    2   27 1
   6    3    4 ar
   7    3   40 1
   8    4    5 ar
   9    4   41 1
  10    5    6 ar
  11    5    7 1
  12    6   42 1
  13    7    8 1
  14    7    9 1
  15    7   23 1
  16    8   11 1
  17    9   10 1
  18    9   43 1
  19    9   44 1
  20   10   11 2
  21   10   12 1
  22   12   13 ar
  23   12   14 ar
  24   13   22 ar
  25   13   17 ar
  26   14   15 ar
  27   14   45 1
  28   15   16 ar
  29   15   46 1
  30   16   17 ar
  31   16   18 1
  32   17   21 ar
  33   18   19 2
  34   18   20 am
  35   20   28 1
  36   20   47 1
  37   21   38 ar
  38   21   48 1
  39   22   37 ar
  40   22   49 1
  41   23   24 1
  42   23   25 1
  43   23   26 1
  44   28   29 1
  45   28   50 1
  46   28   51 1
  47   29   31 2
  48   29   30 am
  49   30   32 1
  50   30   52 1
  51   32   33 1
  52   32   53 1
  53   32   54 1
  54   33   34 1
  55   33   35 1
  56   33   36 1
  57   37   38 ar
  58   37   55 1
  59   38   56 1

#	End of record

