#	Name: ASD01913328
#	Creating user name:	WinNT
#	Creation time:	15. 06. 2019 20:01

#	Modifying user name:	WinNT
#	Modification time:	15. 06. 2019 20:01

#	Program:	/corina/corina34_cracker 3.40 0067  02.08.2006

@<TRIPOS>MOLECULE
ASD01913328
  42   44    0    0    0
SMALL
NO_CHARGES


@<TRIPOS>ATOM
   1 C1            -0.0170     1.3919    -0.0115 C.ar    
   2 C2             0.0017    -0.0034    -0.0528 C.ar    
   3 C3             1.2380    -0.6671    -0.0839 C.ar    
   4 C4             2.3831     0.0842    -0.0725 C.ar    
   5 C5             2.2890     1.4732    -0.0307 C.ar    
   6 N6             1.1094     2.0759    -0.0019 N.ar    
   7 N7             3.4483     2.2375    -0.0190 N.pl3   
   8 C8            -1.2223    -0.7465    -0.0628 C.1     
   9 C9            -2.2258    -1.3557    -0.0710 C.1     
  10 C10           -3.4499    -2.0988    -0.0810 C.ar    
  11 C11           -3.4231    -3.4954    -0.1224 C.ar    
  12 C12           -4.6061    -4.2044    -0.1318 C.ar    
  13 C13           -5.8175    -3.5361    -0.1004 C.ar    
  14 C14           -5.8518    -2.1533    -0.0598 C.ar    
  15 C15           -4.6769    -1.4311    -0.0436 C.ar    
  16 C16            4.7582     1.5817    -0.0351 C.3     
  17 C17            3.3615     3.6997     0.0094 C.3     
  18 C18            5.4770     1.9049    -1.3486 C.3     
  19 C19            6.8748     1.2811    -1.3232 C.3     
  20 O20            7.5957     1.7769    -0.1933 O.3     
  21 C21            6.9954     1.4635     1.0651 C.3     
  22 C22            5.6024     2.0946     1.1357 C.3     
  23 H23           -0.9617     1.9149     0.0081 H       
  24 H24            1.2853    -1.7456    -0.1158 H       
  25 H25            3.3501    -0.3960    -0.0953 H       
  26 H26           -2.4784    -4.0182    -0.1473 H       
  27 H27           -4.5870    -5.2837    -0.1641 H       
  28 H28           -6.7406    -4.0966    -0.1080 H       
  29 H29           -6.8009    -1.6385    -0.0358 H       
  30 H30           -4.7052    -0.3520    -0.0119 H       
  31 H31            4.6271     0.5032     0.0531 H       
  32 H32            3.3426     4.0425     1.0439 H       
  33 H33            4.2270     4.1250    -0.4986 H       
  34 H34            2.4502     4.0194    -0.4959 H       
  35 H35            4.9102     1.4947    -2.1844 H       
  36 H36            5.5623     2.9857    -1.4607 H       
  37 H37            6.7879     0.1970    -1.2518 H       
  38 H38            7.4068     1.5439    -2.2376 H       
  39 H39            6.9101     0.3817     1.1678 H       
  40 H40            7.6143     1.8576     1.8713 H       
  41 H41            5.6903     3.1792     1.0737 H       
  42 H42            5.1254     1.8200     2.0765 H       
@<TRIPOS>BOND
   1    1    2 ar
   2    1    6 ar
   3    1   23 1
   4    2    3 ar
   5    2    8 1
   6    3    4 ar
   7    3   24 1
   8    4    5 ar
   9    4   25 1
  10    5    6 ar
  11    5    7 1
  12    7   16 1
  13    7   17 1
  14    8    9 3
  15    9   10 1
  16   10   11 ar
  17   10   15 ar
  18   11   12 ar
  19   11   26 1
  20   12   13 ar
  21   12   27 1
  22   13   14 ar
  23   13   28 1
  24   14   15 ar
  25   14   29 1
  26   15   30 1
  27   16   18 1
  28   16   22 1
  29   16   31 1
  30   17   32 1
  31   17   33 1
  32   17   34 1
  33   18   19 1
  34   18   35 1
  35   18   36 1
  36   19   20 1
  37   19   37 1
  38   19   38 1
  39   20   21 1
  40   21   22 1
  41   21   39 1
  42   21   40 1
  43   22   41 1
  44   22   42 1

#	End of record

