#	Name: ASD00990095
#	Creating user name:	WinNT
#	Creation time:	15. 06. 2019 18:54

#	Modifying user name:	WinNT
#	Modification time:	15. 06. 2019 18:54

#	Program:	/corina/corina34_cracker 3.40 0067  02.08.2006

@<TRIPOS>MOLECULE
ASD00990095
  43   43    0    0    0
SMALL
NO_CHARGES


@<TRIPOS>ATOM
   1 N1            -0.0180     1.4748     0.0102 N.3     
   2 C2             0.0021    -0.0041     0.0020 C.3     
   3 C3             1.3327    -0.4343    -0.6429 C.3     
   4 C4             2.0698     0.8855    -0.9664 C.3     
   5 C5             1.4054     1.8991    -0.0012 C.3     
   6 C6             1.5375     3.3036    -0.5313 C.2     
   7 N7             2.6922     3.9794    -0.3687 N.am    
   8 O8             0.6048     3.8258    -1.1042 O.2     
   9 C9             2.8206     5.3448    -0.8841 C.3     
  10 C10            4.2736     5.6493    -1.1430 C.2     
  11 N11            4.6340     6.8559    -1.6234 N.am    
  12 C12            0.0465     6.4391    -0.9926 C.3     
  13 C13            0.7649     6.1040     0.3160 C.3     
  14 C14            2.2681     6.3326     0.1455 C.3     
  15 C15            0.2356     7.0049     1.4336 C.3     
  16 C16            6.0465     7.1520    -1.8752 C.3     
  17 C17            6.1786     8.5565    -2.4053 C.2     
  18 O18            7.3902     9.0481    -2.7087 O.3     
  19 O19            5.1939     9.2400    -2.5572 O.2     
  20 O20            5.1187     4.8087    -0.9192 O.2     
  21 H21           -0.5089     1.8342    -0.7948 H       
  22 H22           -0.0550    -0.3818     1.0229 H       
  23 H23           -0.8346    -0.3836    -0.5845 H       
  24 H24            1.9165    -1.0319     0.0571 H       
  25 H25            1.1453    -0.9969    -1.5574 H       
  26 H26            3.1354     0.7938    -0.7558 H       
  27 H27            1.9042     1.1755    -2.0040 H       
  28 H28            1.8381     1.8210     0.9962 H       
  29 H29            3.4382     3.5618     0.0895 H       
  30 H30            2.2589     5.4366    -1.8136 H       
  31 H31            3.9581     7.5283    -1.8025 H       
  32 H32            0.2284     7.4825    -1.2502 H       
  33 H33            0.4236     5.7972    -1.7888 H       
  34 H34           -1.0244     6.2762    -0.8712 H       
  35 H35            0.5830     5.0606     0.5735 H       
  36 H36            2.7696     6.1798     1.1011 H       
  37 H37            2.4440     7.3519    -0.1982 H       
  38 H38           -0.8353     6.8421     1.5550 H       
  39 H39            0.7475     6.7662     2.3658 H       
  40 H40            0.4176     8.0483     1.1760 H       
  41 H41            6.6083     7.0602    -0.9456 H       
  42 H42            6.4401     6.4483    -2.6086 H       
  43 H43            7.4247     9.9539    -3.0455 H       
@<TRIPOS>BOND
   1    1    2 1
   2    1    5 1
   3    1   21 1
   4    2    3 1
   5    2   22 1
   6    2   23 1
   7    3    4 1
   8    3   24 1
   9    3   25 1
  10    4    5 1
  11    4   26 1
  12    4   27 1
  13    5    6 1
  14    5   28 1
  15    6    7 am
  16    6    8 2
  17    7    9 1
  18    7   29 1
  19    9   10 1
  20    9   14 1
  21    9   30 1
  22   10   11 am
  23   10   20 2
  24   11   16 1
  25   11   31 1
  26   12   13 1
  27   12   32 1
  28   12   33 1
  29   12   34 1
  30   13   14 1
  31   13   15 1
  32   13   35 1
  33   14   36 1
  34   14   37 1
  35   15   38 1
  36   15   39 1
  37   15   40 1
  38   16   17 1
  39   16   41 1
  40   16   42 1
  41   17   18 1
  42   17   19 2
  43   18   43 1

#	End of record

