#	Name: ASD00310301
#	Creating user name:	WinNT
#	Creation time:	15. 06. 2019 18:34

#	Modifying user name:	WinNT
#	Modification time:	15. 06. 2019 18:34

#	Program:	/corina/corina34_cracker 3.40 0067  02.08.2006

@<TRIPOS>MOLECULE
ASD00310301
  20   20    0    0    0
SMALL
NO_CHARGES


@<TRIPOS>ATOM
   1 C1            -0.0184     1.5028     0.0103 C.2     
   2 C2             0.0021    -0.0041     0.0020 C.3     
   3 O3             1.0236     2.1234     0.0037 O.2     
   4 N4            -1.1946     2.1607     0.0195 N.am    
   5 O5             1.3556    -0.4620    -0.0134 O.3     
   6 C6             1.5520    -1.8069    -0.0225 C.ar    
   7 C7             2.8405    -2.3206    -0.0375 C.ar    
   8 C8             3.0379    -3.6878    -0.0468 C.ar    
   9 C9             1.9516    -4.5446    -0.0415 C.ar    
  10 C10            0.6658    -4.0343    -0.0265 C.ar    
  11 C11            0.4642    -2.6677    -0.0110 C.ar    
  12 Br12           2.2248    -6.4157    -0.0555 Br      
  13 H13           -0.4983    -0.3791     0.8948 H       
  14 H14           -0.5153    -0.3696    -0.8850 H       
  15 H15           -2.0280     1.6644     0.0207 H       
  16 H16           -1.2077     3.1306     0.0248 H       
  17 H17            3.6887    -1.6522    -0.0424 H       
  18 H18            4.0408    -4.0882    -0.0585 H       
  19 H19           -0.1808    -4.7048    -0.0224 H       
  20 H20           -0.5397    -2.2698     0.0052 H       
@<TRIPOS>BOND
   1    1    2 1
   2    1    3 2
   3    1    4 am
   4    2    5 1
   5    2   13 1
   6    2   14 1
   7    4   15 1
   8    4   16 1
   9    5    6 1
  10    6    7 ar
  11    6   11 ar
  12    7    8 ar
  13    7   17 1
  14    8    9 ar
  15    8   18 1
  16    9   10 ar
  17    9   12 1
  18   10   11 ar
  19   10   19 1
  20   11   20 1

#	End of record

