#	Name: ASD08830108
#	Creating user name:	WinNT
#	Creation time:	15. 06. 2019 21:19

#	Modifying user name:	WinNT
#	Modification time:	15. 06. 2019 21:19

#	Program:	/corina/corina34_cracker 3.40 0067  02.08.2006

@<TRIPOS>MOLECULE
ASD08830108
  33   34    0    0    0
SMALL
NO_CHARGES


@<TRIPOS>ATOM
   1 C1            -0.0179     1.4675     0.0101 C.ar    
   2 C2             0.0021    -0.0041     0.0020 C.2     
   3 C3            -1.2926    -0.7753     0.0102 C.3     
   4 C4            -0.9927    -2.2755    -0.0007 C.3     
   5 N5            -2.2547    -3.0273     0.0073 N.3     
   6 O6             1.0602    -0.5960    -0.0113 O.2     
   7 C7             1.1812     2.1863     0.0025 C.ar    
   8 C8             1.1538     3.5674     0.0097 C.ar    
   9 C9            -0.0586     4.2388     0.0249 C.ar    
  10 C10           -1.2485     3.5323     0.0329 C.ar    
  11 C11           -1.2367     2.1537     0.0196 C.ar    
  12 C12           -2.0181    -4.4568    -0.2410 C.3     
  13 C13           -3.3490    -5.2097    -0.1649 C.3     
  14 O14           -4.2665    -4.6418    -1.1035 O.3     
  15 C15           -4.5205    -3.2506    -0.8906 C.3     
  16 C16           -3.2015    -2.4779    -0.9741 C.3     
  17 F17            2.3108     4.2649     0.0024 F       
  18 H18           -1.8592    -0.5245     0.9070 H       
  19 H19           -1.8762    -0.5150    -0.8728 H       
  20 H20           -0.4261    -2.5263    -0.8975 H       
  21 H21           -0.4091    -2.5358     0.8824 H       
  22 H22            2.1261     1.6634    -0.0086 H       
  23 H23           -0.0747     5.3187     0.0308 H       
  24 H24           -2.1893     4.0625     0.0451 H       
  25 H25           -2.1666     1.6046     0.0255 H       
  26 H26           -1.5824    -4.5869    -1.2316 H       
  27 H27           -1.3346    -4.8488     0.5123 H       
  28 H28           -3.1869    -6.2606    -0.4046 H       
  29 H29           -3.7584    -5.1242     0.8417 H       
  30 H30           -5.2057    -2.8846    -1.6552 H       
  31 H31           -4.9640    -3.1082     0.0948 H       
  32 H32           -3.3819    -1.4252    -0.7560 H       
  33 H33           -2.7847    -2.5763    -1.9764 H       
@<TRIPOS>BOND
   1    1    2 1
   2    1    7 ar
   3    1   11 ar
   4    2    3 1
   5    2    6 2
   6    3    4 1
   7    3   18 1
   8    3   19 1
   9    4    5 1
  10    4   20 1
  11    4   21 1
  12    5   12 1
  13    5   16 1
  14    7    8 ar
  15    7   22 1
  16    8    9 ar
  17    8   17 1
  18    9   10 ar
  19    9   23 1
  20   10   11 ar
  21   10   24 1
  22   11   25 1
  23   12   13 1
  24   12   26 1
  25   12   27 1
  26   13   14 1
  27   13   28 1
  28   13   29 1
  29   14   15 1
  30   15   16 1
  31   15   30 1
  32   15   31 1
  33   16   32 1
  34   16   33 1

#	End of record

