#	Name: ASD08150597
#	Creating user name:	WinNT
#	Creation time:	15. 06. 2019 21:16

#	Modifying user name:	WinNT
#	Modification time:	15. 06. 2019 21:16

#	Program:	/corina/corina34_cracker 3.40 0067  02.08.2006

@<TRIPOS>MOLECULE
ASD08150597
  76   82    0    0    0
SMALL
NO_CHARGES


@<TRIPOS>ATOM
   1 N1             0.1790     1.6360     0.5216 N.am    
   2 C2             0.1703     0.2953     0.3902 C.2     
   3 C3             1.3688    -0.4449     0.4431 C.2     
   4 C4             2.5551     0.1884     0.6284 C.2     
   5 C5             2.5680     1.5988     0.7665 C.ar    
   6 C6             3.7707     2.3047     0.9600 C.ar    
   7 N7             3.7796     3.6060     1.0871 N.ar    
   8 C8             2.6570     4.3392     1.0410 C.ar    
   9 C9             1.4010     3.7127     0.8491 C.ar    
  10 C10            1.3568     2.3056     0.7091 C.ar    
  11 C11            0.2368     4.4858     0.8036 C.ar    
  12 C12            0.3251     5.8611     0.9471 C.ar    
  13 C13            1.5717     6.4740     1.1363 C.ar    
  14 C14            2.7127     5.7356     1.1827 C.ar    
  15 O15           -0.8886    -0.2859     0.2237 O.2     
  16 C16           -0.9048     6.6886     0.9001 C.ar    
  17 C17           -1.0253     2.3494     0.4599 C.ar    
  18 C18           -1.4879     2.8272    -0.7597 C.ar    
  19 C19           -2.6740     3.5299    -0.8205 C.ar    
  20 C20           -3.4057     3.7594     0.3381 C.ar    
  21 C21           -2.9430     3.2816     1.5576 C.ar    
  22 C22           -1.7593     2.5738     1.6173 C.ar    
  23 N23           -4.6070     4.4717     0.2767 N.3     
  24 C24           -5.7580     3.5598     0.2335 C.3     
  25 C25           -7.0528     4.3711     0.3497 C.3     
  26 C26           -2.1273     6.1170     0.5128 C.ar    
  27 C27           -4.6145     5.3937    -0.8668 C.3     
  28 C28           -5.8625     6.2802    -0.7957 C.3     
  29 N29           -7.0458     5.4133    -0.6881 N.am    
  30 C30           -8.0957     5.5696    -1.5186 C.2     
  31 C31           -9.2981     4.6702    -1.3907 C.3     
  32 O32           -8.0727     6.4340    -2.3690 O.2     
  33 C33          -10.3380     5.0560    -2.4445 C.3     
  34 N34           -3.2283     6.8230     0.4626 N.ar    
  35 C35           -3.2441     8.1226     0.7772 C.ar    
  36 C36           -2.0495     8.7725     1.1780 C.ar    
  37 C37           -0.8568     8.0319     1.2439 C.ar    
  38 C38           -4.4366     8.8646     0.7167 C.ar    
  39 C39           -4.4282    10.1862     1.0412 C.ar    
  40 C40           -3.2528    10.8231     1.4346 C.ar    
  41 C41           -2.0782    10.1387     1.5055 C.ar    
  42 C42            1.3329    -1.9440     0.2940 C.3     
  43 C43           -3.7362     3.5308     2.8145 C.3     
  44 F44           -3.0087     3.0815     3.9218 F       
  45 F45           -3.9849     4.9014     2.9449 F       
  46 F46           -4.9512     2.8410     2.7437 F       
  47 H47            3.4758    -0.3745     0.6703 H       
  48 H48            4.7030     1.7614     1.0047 H       
  49 H49           -0.7239     4.0145     0.6572 H       
  50 H50            1.6266     7.5470     1.2465 H       
  51 H51            3.6646     6.2242     1.3295 H       
  52 H52           -0.9190     2.6491    -1.6602 H       
  53 H53           -3.0334     3.9017    -1.7687 H       
  54 H54           -1.4018     2.1984     2.5647 H       
  55 H55           -5.7542     3.0138    -0.7098 H       
  56 H56           -5.6948     2.8549     1.0625 H       
  57 H57           -7.9106     3.7146     0.2035 H       
  58 H58           -7.1070     4.8353     1.3344 H       
  59 H59           -2.1599     5.0700     0.2498 H       
  60 H60           -3.7221     6.0188    -0.8358 H       
  61 H61           -4.6267     4.8222    -1.7948 H       
  62 H62           -5.8023     6.9279     0.0789 H       
  63 H63           -5.9333     6.8859    -1.6992 H       
  64 H64           -8.9946     3.6343    -1.5418 H       
  65 H65           -9.7303     4.7808    -0.3962 H       
  66 H66          -10.6414     6.0919    -2.2934 H       
  67 H67           -9.9057     4.9454    -3.4390 H       
  68 H68          -11.2077     4.4055    -2.3520 H       
  69 H69            0.0705     8.4963     1.5454 H       
  70 H70           -5.3567     8.3872     0.4132 H       
  71 H71           -5.3476    10.7509     0.9927 H       
  72 H72           -3.2739    11.8732     1.6861 H       
  73 H73           -1.1735    10.6429     1.8119 H       
  74 H74            1.4301    -2.2068    -0.7594 H       
  75 H75            2.1563    -2.3849     0.8559 H       
  76 H76            0.3863    -2.3248     0.6776 H       
@<TRIPOS>BOND
   1    1    2 am
   2    1   10 1
   3    1   17 1
   4    2    3 1
   5    2   15 2
   6    3    4 2
   7    3   42 1
   8    4    5 1
   9    4   47 1
  10    5    6 ar
  11    5   10 ar
  12    6    7 ar
  13    6   48 1
  14    7    8 ar
  15    8    9 ar
  16    8   14 ar
  17    9   10 ar
  18    9   11 ar
  19   11   12 ar
  20   11   49 1
  21   12   13 ar
  22   12   16 1
  23   13   14 ar
  24   13   50 1
  25   14   51 1
  26   16   26 ar
  27   16   37 ar
  28   17   18 ar
  29   17   22 ar
  30   18   19 ar
  31   18   52 1
  32   19   20 ar
  33   19   53 1
  34   20   21 ar
  35   20   23 1
  36   21   22 ar
  37   21   43 1
  38   22   54 1
  39   23   24 1
  40   23   27 1
  41   24   25 1
  42   24   55 1
  43   24   56 1
  44   25   29 1
  45   25   57 1
  46   25   58 1
  47   26   34 ar
  48   26   59 1
  49   27   28 1
  50   27   60 1
  51   27   61 1
  52   28   29 1
  53   28   62 1
  54   28   63 1
  55   29   30 am
  56   30   31 1
  57   30   32 2
  58   31   33 1
  59   31   64 1
  60   31   65 1
  61   33   66 1
  62   33   67 1
  63   33   68 1
  64   34   35 ar
  65   35   36 ar
  66   35   38 ar
  67   36   37 ar
  68   36   41 ar
  69   37   69 1
  70   38   39 ar
  71   38   70 1
  72   39   40 ar
  73   39   71 1
  74   40   41 ar
  75   40   72 1
  76   41   73 1
  77   42   74 1
  78   42   75 1
  79   42   76 1
  80   43   44 1
  81   43   45 1
  82   43   46 1

#	End of record

