#	Name: ASD09800065
#	Creating user name:	WinNT
#	Creation time:	15. 06. 2019 21:24

#	Modifying user name:	WinNT
#	Modification time:	15. 06. 2019 21:24

#	Program:	/corina/corina34_cracker 3.40 0067  02.08.2006

@<TRIPOS>MOLECULE
ASD09800065
  58   61    0    0    0
SMALL
NO_CHARGES


@<TRIPOS>ATOM
   1 C1             0.0188     1.3373     0.3595 C.ar    
   2 C2             0.2342     0.2185    -0.4603 C.ar    
   3 C3             1.4682    -0.4348    -0.4254 C.ar    
   4 C4             2.4641     0.0212     0.4109 C.ar    
   5 C5             2.2483     1.1258     1.2190 C.ar    
   6 C6             1.0344     1.7821     1.1959 C.ar    
   7 C7            -0.8359    -0.2644    -1.3526 C.2     
   8 N8            -0.5951    -1.2796    -2.2057 N.am    
   9 O9            -1.9357     0.2534    -1.3188 O.2     
  10 C10           -1.6582    -1.7594    -3.0922 C.3     
  11 N11           -1.2031     2.0003     0.3303 N.pl3   
  12 C12           -1.2466     3.3809     0.4610 C.ar    
  13 C13           -0.1623     5.4096     0.6125 C.ar    
  14 N14           -0.1240     4.0912     0.4883 N.ar    
  15 C15           -2.4720     4.0455     0.5599 C.ar    
  16 C16           -2.4667     5.4215     0.6882 C.ar    
  17 N17           -1.3088     6.0655     0.7135 N.ar    
  18 N18            1.0263     6.1201     0.6380 N.pl3   
  19 C19            1.0110     7.5056     0.8607 C.ar    
  20 C20            2.0210     9.6699     0.5825 C.ar    
  21 C21            2.0381     8.3030     0.3614 C.ar    
  22 C22           -0.0299     8.0823     1.5732 C.ar    
  23 C23           -0.0459     9.4465     1.7926 C.ar    
  24 C24            0.9800    10.2428     1.3007 C.ar    
  25 N25            0.9620    11.6240     1.5249 N.3     
  26 C26           -0.2226    12.0163     2.3022 C.3     
  27 C27           -0.1716    13.5218     2.5751 C.3     
  28 O28           -0.0828    14.2238     1.3322 O.3     
  29 C29            1.0598    13.8666     0.5497 C.3     
  30 C30            1.0213    12.3645     0.2563 C.3     
  31 O31            3.0567     7.7398    -0.3418 O.3     
  32 C32            4.0760     8.6180    -0.8233 C.3     
  33 Cl33          -3.9664     3.1629     0.5220 Cl      
  34 H34            1.6417    -1.2965    -1.0530 H       
  35 H35            3.4176    -0.4854     0.4369 H       
  36 H36            3.0351     1.4755     1.8711 H       
  37 H37            0.8742     2.6426     1.8286 H       
  38 H38            0.2822    -1.6926    -2.2328 H       
  39 H39           -1.2792    -2.5779    -3.7041 H       
  40 H40           -2.4986    -2.1118    -2.4941 H       
  41 H41           -1.9878    -0.9454    -3.7379 H       
  42 H42           -2.0251     1.4975     0.2185 H       
  43 H43           -3.3961     5.9660     0.7667 H       
  44 H44            1.8693     5.6600     0.5020 H       
  45 H45            2.8166    10.2898     0.1965 H       
  46 H46           -0.8286     7.4648     1.9566 H       
  47 H47           -0.8575     9.8941     2.3470 H       
  48 H48           -1.1238    11.7791     1.7367 H       
  49 H49           -0.2328    11.4750     3.2482 H       
  50 H50           -1.0759    13.8271     3.1016 H       
  51 H51            0.7012    13.7517     3.1861 H       
  52 H52            1.0462    14.4212    -0.3885 H       
  53 H53            1.9685    14.1065     1.1019 H       
  54 H54            1.9192    12.0775    -0.2911 H       
  55 H55            0.1400    12.1329    -0.3418 H       
  56 H56            3.6331     9.3573    -1.4906 H       
  57 H57            4.5468     9.1247     0.0191 H       
  58 H58            4.8256     8.0418    -1.3657 H       
@<TRIPOS>BOND
   1    1    2 ar
   2    1    6 ar
   3    1   11 1
   4    2    3 ar
   5    2    7 1
   6    3    4 ar
   7    3   34 1
   8    4    5 ar
   9    4   35 1
  10    5    6 ar
  11    5   36 1
  12    6   37 1
  13    7    8 am
  14    7    9 2
  15    8   10 1
  16    8   38 1
  17   10   39 1
  18   10   40 1
  19   10   41 1
  20   11   12 1
  21   11   42 1
  22   12   15 ar
  23   12   14 ar
  24   13   14 ar
  25   13   17 ar
  26   13   18 1
  27   15   16 ar
  28   15   33 1
  29   16   17 ar
  30   16   43 1
  31   18   19 1
  32   18   44 1
  33   19   22 ar
  34   19   21 ar
  35   20   21 ar
  36   20   24 ar
  37   20   45 1
  38   21   31 1
  39   22   23 ar
  40   22   46 1
  41   23   24 ar
  42   23   47 1
  43   24   25 1
  44   25   26 1
  45   25   30 1
  46   26   27 1
  47   26   48 1
  48   26   49 1
  49   27   28 1
  50   27   50 1
  51   27   51 1
  52   28   29 1
  53   29   30 1
  54   29   52 1
  55   29   53 1
  56   30   54 1
  57   30   55 1
  58   31   32 1
  59   32   56 1
  60   32   57 1
  61   32   58 1

#	End of record

