#	Name: ASD01903087
#	Creating user name:	WinNT
#	Creation time:	15. 06. 2019 19:54

#	Modifying user name:	WinNT
#	Modification time:	15. 06. 2019 19:54

#	Program:	/corina/corina34_cracker 3.40 0067  02.08.2006

@<TRIPOS>MOLECULE
ASD01903087
  28   30    0    0    0
SMALL
NO_CHARGES


@<TRIPOS>ATOM
   1 C1            -0.0162     1.3110     0.0196 C.2     
   2 N2             0.0006    -0.0034     0.0047 N.2     
   3 C3            -1.1695    -0.6134     0.0254 C.2     
   4 N4            -2.2419     0.1364     0.0588 N.2     
   5 S5            -1.6834     1.7412     0.0709 S.3     
   6 C6            -1.2659    -2.0945     0.0109 C.2     
   7 N7             1.0728     2.1661     0.0034 N.pl3   
   8 C8            -2.4164    -2.8280     0.0298 C.2     
   9 N9            -2.0700    -4.1306     0.0069 N.pl3   
  10 N10           -0.6726    -4.2115    -0.0270 N.2     
  11 C11           -0.1865    -2.9986    -0.0309 C.2     
  12 C12            0.8768     3.5407    -0.0924 C.ar    
  13 N13           -0.3455     4.0180    -0.2721 N.ar    
  14 C14           -0.5745     5.3156    -0.3681 C.ar    
  15 C15            0.4640     6.2265    -0.2838 C.ar    
  16 C16            1.7587     5.7646    -0.0957 C.ar    
  17 C17            1.9653     4.4000     0.0072 C.ar    
  18 F18           -1.8376     5.7586    -0.5513 F       
  19 C19           -3.8200    -2.2810     0.0695 C.3     
  20 H20            1.9722     1.8072     0.0589 H       
  21 H21           -2.6831    -4.8823     0.0131 H       
  22 H22            0.8607    -2.7353    -0.0543 H       
  23 H23            0.2687     7.2857    -0.3640 H       
  24 H24            2.5864     6.4549    -0.0269 H       
  25 H25            2.9606     4.0072     0.1540 H       
  26 H26           -4.1829    -2.1371    -0.9482 H       
  27 H27           -4.4694    -2.9843     0.5908 H       
  28 H28           -3.8230    -1.3258     0.5947 H       
@<TRIPOS>BOND
   1    1    2 2
   2    1    7 1
   3    1    5 1
   4    2    3 1
   5    3    4 2
   6    3    6 1
   7    4    5 1
   8    6    8 2
   9    6   11 1
  10    7   12 1
  11    7   20 1
  12    8    9 1
  13    8   19 1
  14    9   10 1
  15    9   21 1
  16   10   11 2
  17   11   22 1
  18   12   13 ar
  19   12   17 ar
  20   13   14 ar
  21   14   15 ar
  22   14   18 1
  23   15   16 ar
  24   15   23 1
  25   16   17 ar
  26   16   24 1
  27   17   25 1
  28   19   26 1
  29   19   27 1
  30   19   28 1

#	End of record

