#	Name: ASD00069034
#	Creating user name:	WinNT
#	Creation time:	15. 06. 2019 18:29

#	Modifying user name:	WinNT
#	Modification time:	15. 06. 2019 18:29

#	Program:	/corina/corina34_cracker 3.40 0067  02.08.2006

@<TRIPOS>MOLECULE
ASD00069034
  48   52    0    0    0
SMALL
NO_CHARGES


@<TRIPOS>ATOM
   1 C1            -0.0084     1.3718     0.2514 C.ar    
   2 C2             0.0006    -0.0016     0.0085 C.ar    
   3 C3             1.1922    -0.6587    -0.2331 C.ar    
   4 C4             2.3874     0.0628    -0.2326 C.ar    
   5 C5             2.3682     1.4475     0.0130 C.ar    
   6 C6             1.1545     2.0870     0.2543 C.ar    
   7 C7             3.7941    -0.2994    -0.4450 C.2     
   8 N8             4.5067     0.7975    -0.3274 N.2     
   9 N9             3.6695     1.8822    -0.0482 N.pl3   
  10 C10            4.3130    -1.6499    -0.7373 C.2     
  11 N11            3.5800    -2.7320    -0.8506 N.2     
  12 C12            4.3760    -3.7949    -1.1215 C.ar    
  13 C13            5.6985    -3.3205    -1.1772 C.ar    
  14 N14            5.6318    -1.9614    -0.9371 N.pl3   
  15 C15            4.1239    -5.1541    -1.3346 C.ar    
  16 C16            5.1596    -6.0061    -1.5940 C.ar    
  17 C17            6.4647    -5.5377    -1.6490 C.ar    
  18 C18            6.7375    -4.2018    -1.4418 C.ar    
  19 N19           -1.2025    -0.7176     0.0097 N.am    
  20 C20           -2.3261    -0.1482    -0.4698 C.2     
  21 O21           -2.3146     1.0145    -0.8246 O.2     
  22 C22           -3.5723    -0.9375    -0.5642 C.ar    
  23 C23           -4.7375    -0.3509    -1.0603 C.ar    
  24 C24           -5.8974    -1.0933    -1.1457 C.ar    
  25 C25           -5.9070    -2.4162    -0.7411 C.ar    
  26 C26           -4.7553    -3.0037    -0.2479 C.ar    
  27 C27           -3.5874    -2.2746    -0.1629 C.ar    
  28 S28           -7.3698    -0.3546    -1.7712 S.o2    
  29 C29           -7.3083    -0.6648    -3.5574 C.3     
  30 O30           -8.4189    -1.1020    -1.1711 O.2     
  31 O31           -7.2093     1.0309    -1.4998 O.2     
  32 H32           -0.9459     1.8757     0.4348 H       
  33 H33            1.1987    -1.7223    -0.4204 H       
  34 H34            1.1333     3.1501     0.4431 H       
  35 H35            3.9620     2.7980     0.0814 H       
  36 H36            6.3797    -1.3444    -0.9088 H       
  37 H37            3.1120    -5.5295    -1.2937 H       
  38 H38            4.9608    -7.0550    -1.7576 H       
  39 H39            7.2726    -6.2242    -1.8552 H       
  40 H40            7.7551    -3.8428    -1.4862 H       
  41 H41           -1.2274    -1.6234     0.3557 H       
  42 H42           -4.7314     0.6818    -1.3762 H       
  43 H43           -6.8176    -2.9928    -0.8100 H       
  44 H44           -4.7697    -4.0366     0.0670 H       
  45 H45           -2.6891    -2.7344     0.2218 H       
  46 H46           -7.2833    -1.7392    -3.7390 H       
  47 H47           -8.1918    -0.2367    -4.0311 H       
  48 H48           -6.4130    -0.2047    -3.9754 H       
@<TRIPOS>BOND
   1    1    2 ar
   2    1    6 ar
   3    1   32 1
   4    2    3 ar
   5    2   19 1
   6    3    4 ar
   7    3   33 1
   8    4    5 ar
   9    4    7 1
  10    5    6 ar
  11    5    9 1
  12    6   34 1
  13    7    8 2
  14    7   10 1
  15    8    9 1
  16    9   35 1
  17   10   11 2
  18   10   14 1
  19   11   12 1
  20   12   13 ar
  21   12   15 ar
  22   13   14 1
  23   13   18 ar
  24   14   36 1
  25   15   16 ar
  26   15   37 1
  27   16   17 ar
  28   16   38 1
  29   17   18 ar
  30   17   39 1
  31   18   40 1
  32   19   20 am
  33   19   41 1
  34   20   21 2
  35   20   22 1
  36   22   23 ar
  37   22   27 ar
  38   23   24 ar
  39   23   42 1
  40   24   25 ar
  41   24   28 1
  42   25   26 ar
  43   25   43 1
  44   26   27 ar
  45   26   44 1
  46   27   45 1
  47   28   29 1
  48   28   30 2
  49   28   31 2
  50   29   46 1
  51   29   47 1
  52   29   48 1

#	End of record

