#	Name: ASD01140475
#	Creating user name:	WinNT
#	Creation time:	15. 06. 2019 19:00

#	Modifying user name:	WinNT
#	Modification time:	15. 06. 2019 19:00

#	Program:	/corina/corina34_cracker 3.40 0067  02.08.2006

@<TRIPOS>MOLECULE
ASD01140475
  58   61    0    0    0
SMALL
NO_CHARGES


@<TRIPOS>ATOM
   1 C1             0.0501     1.3481    -0.5553 C.3     
   2 C2             0.1346     0.0395     2.0642 C.3     
   3 C3             0.1402     1.5635     1.9318 C.3     
   4 C4             0.8971    -0.3644     3.3275 C.3     
   5 C5             0.8960    -1.8888     3.4601 C.3     
   6 C6             1.5759    -2.5064     2.2374 C.3     
   7 C7             0.7982    -2.1057     0.9722 C.3     
   8 O8             4.8533    -6.4865     1.5074 O.2     
   9 C9             0.0447    -0.1761    -0.4234 C.3     
  10 C10            0.8082    -0.5823     0.8390 C.3     
  11 C11            1.3957    -2.7427    -0.2778 C.3     
  12 C12            1.4891    -4.2714    -0.1376 C.3     
  13 C13            2.3238    -4.5616     1.0942 C.3     
  14 C14            1.5433    -4.0207     2.3238 C.3     
  15 C15            2.3253    -4.6414     3.4864 C.3     
  16 C16            2.6026    -6.0858     2.9870 C.3     
  17 C17            2.5431    -6.0311     1.4387 C.3     
  18 C18            3.6733    -3.8492     0.9840 C.3     
  19 C19            2.2524    -0.0864     0.7438 C.3     
  20 C20            3.8417    -6.5175     0.8486 C.2     
  21 C21           -0.6243     1.9686     0.6698 C.3     
  22 O22            5.2111    -7.4399    -0.8900 O.3     
  23 O23           -1.9722     1.5024     0.7591 O.3     
  24 C24            3.8778    -7.0428    -0.5634 C.3     
  25 H25            1.0784     1.7033    -0.6229 H       
  26 H26           -0.4938     1.6368    -1.4547 H       
  27 H27           -0.8939    -0.3152     2.1321 H       
  28 H28           -0.3394     2.0059     2.8049 H       
  29 H29            1.1685     1.9185     1.8632 H       
  30 H30            1.9245    -0.0063     3.2616 H       
  31 H31            0.4142     0.0764     4.1997 H       
  32 H32            1.4382    -2.1756     4.3611 H       
  33 H33           -0.1314    -2.2472     3.5245 H       
  34 H34            2.6033    -2.1490     2.1677 H       
  35 H35           -0.2360    -2.4341     1.0754 H       
  36 H36           -0.9836    -0.5312    -0.3560 H       
  37 H37            0.5251    -0.6180    -1.2963 H       
  38 H38            0.7685    -2.5009    -1.1359 H       
  39 H39            2.3943    -2.3378    -0.4419 H       
  40 H40            0.4917    -4.6944    -0.0178 H       
  41 H41            1.9682    -4.6960    -1.0199 H       
  42 H42            0.5136    -4.3782     2.3250 H       
  43 H43            3.2593    -4.1049     3.6530 H       
  44 H44            1.7208    -4.6564     4.3933 H       
  45 H45            3.5908    -6.4108     3.3123 H       
  46 H46            1.8405    -6.7660     3.3673 H       
  47 H47            1.7118    -6.6331     1.0719 H       
  48 H48            3.5098    -2.7800     0.8494 H       
  49 H49            4.2482    -4.0170     1.8948 H       
  50 H50            4.2234    -4.2432     0.1294 H       
  51 H51            2.7960    -0.3759     1.6432 H       
  52 H52            2.7320    -0.5295    -0.1290 H       
  53 H53            2.2582     0.9995     0.6495 H       
  54 H54           -0.6209     3.0545     0.5757 H       
  55 H55            5.3091    -7.7889    -1.7864 H       
  56 H56           -2.5167     1.7240    -0.0087 H       
  57 H57            3.2117    -7.9014    -0.6488 H       
  58 H58            3.5529    -6.2612    -1.2502 H       
@<TRIPOS>BOND
   1    1    9 1
   2    1   25 1
   3    1   26 1
   4    1   21 1
   5    2   10 1
   6    2   27 1
   7    2    3 1
   8    2    4 1
   9    3   21 1
  10    3   28 1
  11    3   29 1
  12    4    5 1
  13    4   30 1
  14    4   31 1
  15    5    6 1
  16    5   32 1
  17    5   33 1
  18    6    7 1
  19    6   34 1
  20    6   14 1
  21    7   11 1
  22    7   35 1
  23    7   10 1
  24    8   20 2
  25    9   36 1
  26    9   37 1
  27    9   10 1
  28   10   19 1
  29   11   12 1
  30   11   38 1
  31   11   39 1
  32   12   40 1
  33   12   41 1
  34   12   13 1
  35   13   18 1
  36   13   17 1
  37   13   14 1
  38   14   15 1
  39   14   42 1
  40   15   16 1
  41   15   43 1
  42   15   44 1
  43   16   17 1
  44   16   45 1
  45   16   46 1
  46   17   20 1
  47   17   47 1
  48   18   48 1
  49   18   49 1
  50   18   50 1
  51   19   51 1
  52   19   52 1
  53   19   53 1
  54   20   24 1
  55   21   23 1
  56   21   54 1
  57   22   55 1
  58   22   24 1
  59   23   56 1
  60   24   57 1
  61   24   58 1

#	End of record

