#	Name: ASD01190189
#	Creating user name:	WinNT
#	Creation time:	15. 06. 2019 19:07

#	Modifying user name:	WinNT
#	Modification time:	15. 06. 2019 19:07

#	Program:	/corina/corina34_cracker 3.40 0067  02.08.2006

@<TRIPOS>MOLECULE
ASD01190189
  48   52    0    0    0
SMALL
NO_CHARGES


@<TRIPOS>ATOM
   1 C1            -0.0187     1.5258     0.0104 C.3     
   2 C2             0.0677     2.7223     0.9600 C.3     
   3 N3             4.7317     1.3281    -2.9903 N.pl3   
   4 N4             5.6447     1.1879    -1.9399 N.2     
   5 C5             5.0152     1.1671    -0.7993 C.2     
   6 C6             3.5880     1.3002    -1.0742 C.ar    
   7 C7             2.4426     1.3425    -0.2714 C.ar    
   8 C8             1.2156     1.4796    -0.8530 C.ar    
   9 C9             1.0935     1.5765    -2.2338 C.ar    
  10 C10            2.1970     1.5372    -3.0384 C.ar    
  11 C11            3.4619     1.3986    -2.4735 C.ar    
  12 C12            5.0607     1.3924    -4.3505 C.ar    
  13 C13            6.2317     2.0207    -4.7537 C.ar    
  14 C14            6.5542     2.0830    -6.0950 C.ar    
  15 C15            5.7108     1.5194    -7.0378 C.ar    
  16 C16            4.5426     0.8923    -6.6379 C.ar    
  17 C17            4.2193     0.8228    -5.2970 C.ar    
  18 F18            6.0278     1.5818    -8.3496 F       
  19 F19            0.1602     3.9030     0.2152 F       
  20 F20           -1.0781     2.7652     1.7616 F       
  21 F21            1.2000     2.5929     1.7714 F       
  22 C22           -0.1183     0.2540     0.8127 C.2     
  23 C23           -1.0440    -0.6914     0.6435 C.2     
  24 C24           -0.9355    -1.7739     1.4994 C.2     
  25 C25            0.0783    -1.7075     2.3638 C.2     
  26 S26            0.9726    -0.2143     2.1104 S.3     
  27 O27            1.5697    -2.3521     4.1562 O.3     
  28 C28            0.4098    -2.7542     3.3961 C.3     
  29 O29           -0.6667    -2.8744     4.3417 O.3     
  30 C30           -0.0743    -3.1388     5.6260 C.3     
  31 C31            1.4498    -3.1229     5.3765 C.3     
  32 O32           -1.1752     1.6579    -0.8184 O.3     
  33 H33            5.4687     1.0686     0.1759 H       
  34 H34            2.5292     1.2670     0.8025 H       
  35 H35            0.1142     1.6838    -2.6765 H       
  36 H36            2.0883     1.6132    -4.1102 H       
  37 H37            6.8895     2.4607    -4.0187 H       
  38 H38            7.4645     2.5719    -6.4090 H       
  39 H39            3.8860     0.4537    -7.3747 H       
  40 H40            3.3106     0.3295    -4.9852 H       
  41 H41           -1.8196    -0.6178    -0.1045 H       
  42 H42           -1.6200    -2.6087     1.4699 H       
  43 H43            0.5931    -3.7132     2.9115 H       
  44 H44           -0.3496    -2.3602     6.3374 H       
  45 H45           -0.3876    -4.1161     5.9933 H       
  46 H46            1.8277    -4.1351     5.2322 H       
  47 H47            1.9700    -2.6292     6.1974 H       
  48 H48           -1.2936     0.9326    -1.4469 H       
@<TRIPOS>BOND
   1    1    2 1
   2    1    8 1
   3    1   22 1
   4    1   32 1
   5    2   19 1
   6    2   20 1
   7    2   21 1
   8    3    4 1
   9    3   11 1
  10    3   12 1
  11    4    5 2
  12    5    6 1
  13    5   33 1
  14    6    7 ar
  15    6   11 ar
  16    7    8 ar
  17    7   34 1
  18    8    9 ar
  19    9   10 ar
  20    9   35 1
  21   10   11 ar
  22   10   36 1
  23   12   13 ar
  24   12   17 ar
  25   13   14 ar
  26   13   37 1
  27   14   15 ar
  28   14   38 1
  29   15   16 ar
  30   15   18 1
  31   16   17 ar
  32   16   39 1
  33   17   40 1
  34   22   23 2
  35   22   26 1
  36   23   24 1
  37   23   41 1
  38   24   25 2
  39   24   42 1
  40   25   26 1
  41   25   28 1
  42   27   28 1
  43   27   31 1
  44   28   29 1
  45   28   43 1
  46   29   30 1
  47   30   31 1
  48   30   44 1
  49   30   45 1
  50   31   46 1
  51   31   47 1
  52   32   48 1

#	End of record

