#	Name: ASD03490003
#	Creating user name:	WinNT
#	Creation time:	15. 06. 2019 20:42

#	Modifying user name:	WinNT
#	Modification time:	15. 06. 2019 20:42

#	Program:	/corina/corina34_cracker 3.40 0067  02.08.2006

@<TRIPOS>MOLECULE
ASD03490003
  63   66    0    0    0
SMALL
NO_CHARGES


@<TRIPOS>ATOM
   1 C1            -0.0142     1.3511    -0.0173 C.2     
   2 C2             0.0066    -0.0097    -0.0732 C.2     
   3 C3            -1.3162    -0.4588    -0.0719 C.2     
   4 N4            -2.1071     0.5823    -0.0176 N.2     
   5 N5            -1.3159     1.7375     0.0230 N.pl3   
   6 N6             1.0954     2.1917     0.0013 N.am    
   7 C7             2.3372     1.6693    -0.0377 C.2     
   8 C8             3.5246     2.5688    -0.0178 C.2     
   9 C9             4.8710     2.0018     0.0768 C.ar    
  10 C10            6.0516     2.8614    -0.0379 C.ar    
  11 C11            7.3362     2.2774     0.0586 C.ar    
  12 C12            7.4519     0.8847     0.2620 C.ar    
  13 C13            6.3219     0.0949     0.3665 C.ar    
  14 C14            5.0526     0.6318     0.2838 C.ar    
  15 C15            5.9323     4.2396    -0.2401 C.ar    
  16 C16            7.0567     5.0067    -0.3422 C.ar    
  17 C17            8.3215     4.4350    -0.2480 C.ar    
  18 C18            8.4717     3.0945    -0.0501 C.ar    
  19 O19            8.6785     0.3186     0.3549 O.3     
  20 C20            8.7269    -1.0947     0.5606 C.3     
  21 C21           10.1858    -1.5490     0.6393 C.3     
  22 N22           10.8182    -0.9614     1.8278 N.3     
  23 C23           12.1403    -1.5569     2.0699 C.3     
  24 C24           12.7873    -0.8757     3.2788 C.3     
  25 O25           11.9216    -1.0012     4.4102 O.3     
  26 C26           10.6254    -0.4313     4.2094 C.3     
  27 C27            9.9565    -1.1079     3.0099 C.3     
  28 C28           -1.7577    -1.8987    -0.1246 C.3     
  29 C29           -1.5294    -2.5524     1.2397 C.3     
  30 C30           -3.2448    -1.9635    -0.4788 C.3     
  31 C31           -0.9473    -2.6420    -1.1884 C.3     
  32 O32            2.4882     0.4655    -0.0890 O.2     
  33 O33            3.3755     3.7737    -0.0801 O.2     
  34 H34            0.8890    -0.6312    -0.1120 H       
  35 H35           -1.6399     2.6508     0.0665 H       
  36 H36            0.9747     3.1533     0.0423 H       
  37 H37            6.4349    -0.9679     0.5218 H       
  38 H38            4.1918    -0.0148     0.3697 H       
  39 H39            4.9558     4.6947    -0.3155 H       
  40 H40            6.9633     6.0712    -0.4984 H       
  41 H41            9.1968     5.0620    -0.3326 H       
  42 H42            9.4595     2.6636     0.0214 H       
  43 H43            8.2180    -1.3439     1.4918 H       
  44 H44            8.2333    -1.5998    -0.2696 H       
  45 H45           10.2246    -2.6362     0.7070 H       
  46 H46           10.7170    -1.2214    -0.2544 H       
  47 H47           12.0285    -2.6226     2.2693 H       
  48 H48           12.7700    -1.4144     1.1917 H       
  49 H49           13.7429    -1.3525     3.4970 H       
  50 H50           12.9482     0.1797     3.0589 H       
  51 H51           10.0174    -0.5866     5.1006 H       
  52 H52           10.7234     0.6371     4.0166 H       
  53 H53            8.9921    -0.6377     2.8179 H       
  54 H54            9.8098    -2.1665     3.2244 H       
  55 H55           -2.1068    -2.0228     1.9975 H       
  56 H56           -1.8488    -3.5939     1.2015 H       
  57 H57           -0.4700    -2.5062     1.4920 H       
  58 H58           -3.4074    -1.4977    -1.4507 H       
  59 H59           -3.5642    -3.0049    -0.5169 H       
  60 H60           -3.8222    -1.4339     0.2791 H       
  61 H61            0.1121    -2.5958    -0.9361 H       
  62 H62           -1.2667    -3.6835    -1.2265 H       
  63 H63           -1.1100    -2.1762    -2.1604 H       
@<TRIPOS>BOND
   1    1    2 2
   2    1    6 1
   3    1    5 1
   4    2    3 1
   5    2   34 1
   6    3    4 2
   7    3   28 1
   8    4    5 1
   9    5   35 1
  10    6    7 am
  11    6   36 1
  12    7    8 1
  13    7   32 2
  14    8    9 1
  15    8   33 2
  16    9   10 ar
  17    9   14 ar
  18   10   11 ar
  19   10   15 ar
  20   11   12 ar
  21   11   18 ar
  22   12   13 ar
  23   12   19 1
  24   13   14 ar
  25   13   37 1
  26   14   38 1
  27   15   16 ar
  28   15   39 1
  29   16   17 ar
  30   16   40 1
  31   17   18 ar
  32   17   41 1
  33   18   42 1
  34   19   20 1
  35   20   21 1
  36   20   43 1
  37   20   44 1
  38   21   22 1
  39   21   45 1
  40   21   46 1
  41   22   23 1
  42   22   27 1
  43   23   24 1
  44   23   47 1
  45   23   48 1
  46   24   25 1
  47   24   49 1
  48   24   50 1
  49   25   26 1
  50   26   27 1
  51   26   51 1
  52   26   52 1
  53   27   53 1
  54   27   54 1
  55   28   29 1
  56   28   30 1
  57   28   31 1
  58   29   55 1
  59   29   56 1
  60   29   57 1
  61   30   58 1
  62   30   59 1
  63   30   60 1
  64   31   61 1
  65   31   62 1
  66   31   63 1

#	End of record

