#	Name: ASD01200406
#	Creating user name:	WinNT
#	Creation time:	15. 06. 2019 19:09

#	Modifying user name:	WinNT
#	Modification time:	15. 06. 2019 19:09

#	Program:	/corina/corina34_cracker 3.40 0067  02.08.2006

@<TRIPOS>MOLECULE
ASD01200406
  54   58    0    0    0
SMALL
NO_CHARGES


@<TRIPOS>ATOM
   1 C1             0.3064     1.0903     1.6211 C.ar    
   2 C2             0.2290    -0.2175     1.1315 C.ar    
   3 C3             1.3052    -0.7580     0.4576 C.ar    
   4 C4             2.4629    -0.0070     0.2656 C.ar    
   5 C5             2.5508     1.2813     0.7430 C.ar    
   6 C6             3.6305    -0.6109    -0.4714 C.3     
   7 C7             3.4498    -0.4345    -1.9954 C.3     
   8 C8             4.2217     0.8801    -2.2543 C.3     
   9 C9             5.2194     0.9541    -1.1195 C.2     
  10 N10            4.8671     0.1058    -0.1381 N.am    
  11 C11           -0.6205     1.9515     2.3528 C.2     
  12 C12            1.4775     1.8461     1.4248 C.ar    
  13 N13            1.2735     3.0805     2.0039 N.pl3   
  14 C14            0.0146     3.1327     2.5574 C.2     
  15 C15            5.6207    -0.0794     1.1045 C.3     
  16 O16            1.2356    -2.0290    -0.0206 O.3     
  17 O17            6.1955     1.6737    -1.0986 O.2     
  18 C18            0.0531    -2.6890     0.0917 C.ar    
  19 C19           -2.1011    -3.2756    -0.7470 C.ar    
  20 C20           -2.2906    -4.0402     0.3893 C.ar    
  21 N21           -1.3585    -4.1140     1.3189 N.ar    
  22 C22           -0.2126    -3.4719     1.2057 C.ar    
  23 C23           -0.9111    -2.5847    -0.9064 C.ar    
  24 S24           -3.8012    -4.9222     0.6013 S.o2    
  25 O25           -3.9352    -5.0542     2.0098 O.2     
  26 O26           -4.7478    -4.1837    -0.1587 O.2     
  27 C27           -3.4928    -6.5382    -0.1630 C.3     
  28 C28           -0.5593     4.2984     3.2617 C.ar    
  29 N29           -1.7943     4.2394     3.7555 N.ar    
  30 C30           -2.3018     5.2833     4.3840 C.ar    
  31 C31           -1.5529     6.4385     4.5307 C.ar    
  32 N32           -0.3258     6.5037     4.0422 N.ar    
  33 C33            0.1940     5.4644     3.4170 C.ar    
  34 H34           -0.6676    -0.8010     1.2802 H       
  35 H35            3.4534     1.8539     0.5881 H       
  36 H36            3.7269    -1.6678    -0.2228 H       
  37 H37            3.8993    -1.2646    -2.5402 H       
  38 H38            2.3963    -0.3255    -2.2533 H       
  39 H39            4.7375     0.8369    -3.2136 H       
  40 H40            3.5439     1.7331    -2.2226 H       
  41 H41           -1.6207     1.6962     2.6702 H       
  42 H42            1.9196     3.8038     2.0179 H       
  43 H43            6.3589    -0.8695     0.9673 H       
  44 H44            6.1273     0.8501     1.3641 H       
  45 H45            4.9365    -0.3566     1.9064 H       
  46 H46           -2.8700    -3.2213    -1.5034 H       
  47 H47            0.5270    -3.5566     1.9882 H       
  48 H48           -0.7360    -1.9795    -1.7837 H       
  49 H49           -2.6614    -7.0274     0.3444 H       
  50 H50           -4.3859    -7.1572    -0.0768 H       
  51 H51           -3.2460    -6.4011    -1.2157 H       
  52 H52           -3.3037     5.2362     4.7845 H       
  53 H53           -1.9727     7.2898     5.0458 H       
  54 H54            1.1979     5.5168     3.0222 H       
@<TRIPOS>BOND
   1    1    2 ar
   2    1   12 ar
   3    1   11 1
   4    2    3 ar
   5    2   34 1
   6    3    4 ar
   7    3   16 1
   8    4    5 ar
   9    4    6 1
  10    5   12 ar
  11    5   35 1
  12    6    7 1
  13    6   10 1
  14    6   36 1
  15    7    8 1
  16    7   37 1
  17    7   38 1
  18    8    9 1
  19    8   39 1
  20    8   40 1
  21    9   10 am
  22    9   17 2
  23   10   15 1
  24   11   14 2
  25   11   41 1
  26   12   13 1
  27   13   14 1
  28   13   42 1
  29   14   28 1
  30   15   43 1
  31   15   44 1
  32   15   45 1
  33   16   18 1
  34   18   23 ar
  35   18   22 ar
  36   19   20 ar
  37   19   23 ar
  38   19   46 1
  39   20   21 ar
  40   20   24 1
  41   21   22 ar
  42   22   47 1
  43   23   48 1
  44   24   25 2
  45   24   26 2
  46   24   27 1
  47   27   49 1
  48   27   50 1
  49   27   51 1
  50   28   29 ar
  51   28   33 ar
  52   29   30 ar
  53   30   31 ar
  54   30   52 1
  55   31   32 ar
  56   31   53 1
  57   32   33 ar
  58   33   54 1

#	End of record

