#	Name: ASD02039210
#	Creating user name:	WinNT
#	Creation time:	15. 06. 2019 20:17

#	Modifying user name:	WinNT
#	Modification time:	15. 06. 2019 20:17

#	Program:	/corina/corina34_cracker 3.40 0067  02.08.2006

@<TRIPOS>MOLECULE
ASD02039210
  33   35    0    0    0
SMALL
NO_CHARGES


@<TRIPOS>ATOM
   1 N1            -0.0009     1.2804     0.2555 N.2     
   2 C2             0.0074    -0.0199     0.1290 C.2     
   3 N3             1.2988    -0.4142     0.1377 N.2     
   4 C4             2.0014     0.6839     0.2704 C.2     
   5 O5             1.1345     1.6990     0.3378 O.3     
   6 C6             3.5037     0.7835     0.3350 C.3     
   7 N7            -1.1051    -0.8435     0.0088 N.pl3   
   8 C8            -2.3900    -0.3050     0.1298 C.ar    
   9 C9            -3.4561    -0.8916    -0.5399 C.ar    
  10 C10           -4.7241    -0.3581    -0.4183 C.ar    
  11 C11           -4.9331     0.7600     0.3700 C.ar    
  12 C12           -3.8726     1.3467     1.0380 C.ar    
  13 C13           -2.6035     0.8140     0.9244 C.ar    
  14 Cl14          -6.5283     1.4280     0.5206 Cl      
  15 C15            4.0561     0.9545    -1.0566 C.ar    
  16 C16            4.3875    -0.1572    -1.8091 C.ar    
  17 C17            4.2254     2.2226    -1.5810 C.ar    
  18 C18            4.7311     2.3820    -2.8566 C.ar    
  19 C19            5.0697     1.2684    -3.6115 C.ar    
  20 C20            4.8940    -0.0031    -3.0850 C.ar    
  21 O21            5.5670     1.4225    -4.8668 O.3     
  22 H22            3.7851     1.6415     0.9456 H       
  23 H23            3.9095    -0.1262     0.7777 H       
  24 H24           -0.9905    -1.7919    -0.1591 H       
  25 H25           -3.2936    -1.7640    -1.1555 H       
  26 H26           -5.5534    -0.8136    -0.9391 H       
  27 H27           -4.0384     2.2197     1.6519 H       
  28 H28           -1.7764     1.2721     1.4463 H       
  29 H29            4.2505    -1.1468    -1.3988 H       
  30 H30            3.9616     3.0892    -0.9929 H       
  31 H31            4.8625     3.3727    -3.2660 H       
  32 H32            5.1572    -0.8716    -3.6706 H       
  33 H33            6.5307     1.4940    -4.9020 H       
@<TRIPOS>BOND
   1    1    2 2
   2    1    5 1
   3    2    3 1
   4    2    7 1
   5    3    4 2
   6    4    5 1
   7    4    6 1
   8    6   15 1
   9    6   22 1
  10    6   23 1
  11    7    8 1
  12    7   24 1
  13    8    9 ar
  14    8   13 ar
  15    9   10 ar
  16    9   25 1
  17   10   11 ar
  18   10   26 1
  19   11   12 ar
  20   11   14 1
  21   12   13 ar
  22   12   27 1
  23   13   28 1
  24   15   17 ar
  25   15   16 ar
  26   16   20 ar
  27   16   29 1
  28   17   18 ar
  29   17   30 1
  30   18   19 ar
  31   18   31 1
  32   19   20 ar
  33   19   21 1
  34   20   32 1
  35   21   33 1

#	End of record

