#	Name: ASD03331139
#	Creating user name:	WinNT
#	Creation time:	15. 06. 2019 20:38

#	Modifying user name:	WinNT
#	Modification time:	15. 06. 2019 20:38

#	Program:	/corina/corina34_cracker 3.40 0067  02.08.2006

@<TRIPOS>MOLECULE
ASD03331139
  26   27    0    0    0
SMALL
NO_CHARGES


@<TRIPOS>ATOM
   1 C1            -0.1139     1.4520     0.0196 C.2     
   2 N2             0.0311     0.1122     0.0033 N.am    
   3 O3             0.8670     2.1692     0.0343 O.2     
   4 O4            -1.3459     1.9962     0.0139 O.3     
   5 C5             1.6131    -1.6401     0.5392 C.ar    
   6 C6             1.3067    -0.4524    -0.1121 C.ar    
   7 C7             2.2868     0.1682    -0.8820 C.ar    
   8 C8             3.5340    -0.4293    -0.9661 C.ar    
   9 C9             3.7630    -1.6122    -0.2886 C.ar    
  10 N10            2.8129    -2.1750     0.4325 N.ar    
  11 C11           -1.4240     3.3480     0.1340 C.ar    
  12 C12           -1.1056     4.1609    -0.9441 C.ar    
  13 C13           -1.1862     5.5343    -0.8196 C.ar    
  14 C14           -1.5835     6.0990     0.3783 C.ar    
  15 C15           -1.9010     5.2909     1.4545 C.ar    
  16 C16           -1.8279     3.9168     1.3332 C.ar    
  17 H17           -0.7486    -0.4609     0.0716 H       
  18 H18            0.8621    -2.1280     1.1427 H       
  19 H19            2.0799     1.0924    -1.4011 H       
  20 H20            4.3182     0.0238    -1.5544 H       
  21 H21            4.7334    -2.0822    -0.3508 H       
  22 H22           -0.7945     3.7203    -1.8798 H       
  23 H23           -0.9384     6.1676    -1.6587 H       
  24 H24           -1.6456     7.1729     0.4738 H       
  25 H25           -2.2104     5.7344     2.3894 H       
  26 H26           -2.0806     3.2859     2.1725 H       
@<TRIPOS>BOND
   1    1    2 am
   2    1    3 2
   3    1    4 1
   4    2    6 1
   5    2   17 1
   6    4   11 1
   7    5    6 ar
   8    5   10 ar
   9    5   18 1
  10    6    7 ar
  11    7    8 ar
  12    7   19 1
  13    8    9 ar
  14    8   20 1
  15    9   10 ar
  16    9   21 1
  17   11   12 ar
  18   11   16 ar
  19   12   13 ar
  20   12   22 1
  21   13   14 ar
  22   13   23 1
  23   14   15 ar
  24   14   24 1
  25   15   16 ar
  26   15   25 1
  27   16   26 1

#	End of record

