#	Name: ASD05060098
#	Creating user name:	WinNT
#	Creation time:	15. 06. 2019 20:56

#	Modifying user name:	WinNT
#	Modification time:	15. 06. 2019 20:56

#	Program:	/corina/corina34_cracker 3.40 0067  02.08.2006

@<TRIPOS>MOLECULE
ASD05060098
  38   40    0    0    0
SMALL
NO_CHARGES


@<TRIPOS>ATOM
   1 S1            -0.0211     1.7014     0.0114 S.3     
   2 C2             0.0021    -0.0041     0.0020 C.2     
   3 C3             1.2542    -0.4699    -0.0124 C.2     
   4 C4             2.2390     0.4978    -0.0166 C.2     
   5 C5             1.7354     1.7768    -0.0050 C.2     
   6 C6             2.5072     2.9641    -0.0064 C.2     
   7 O7             3.7223     2.8998    -0.0187 O.2     
   8 O8             1.8951     4.1668     0.0060 O.3     
   9 N9             3.6067     0.2069    -0.0313 N.pl3   
  10 C10            4.5263     0.7443    -0.8867 C.2     
  11 C11            5.7330     0.2203    -0.5911 C.2     
  12 C12            5.5546    -0.6727     0.4850 C.2     
  13 C13            4.2464    -0.6573     0.8114 C.2     
  14 C14            6.6303    -1.4902     1.1527 C.3     
  15 N15            7.2085    -0.7238     2.2646 N.3     
  16 C16            8.2631    -1.4911     2.9405 C.3     
  17 C17            8.8312    -0.6746     4.0726 C.ar    
  18 C18            9.9030     0.1687     3.8467 C.ar    
  19 C19            8.2770    -0.7648     5.3358 C.ar    
  20 C20            8.7982    -0.0159     6.3743 C.ar    
  21 C21            9.8738     0.8228     6.1497 C.ar    
  22 C22           10.4241     0.9176     4.8851 C.ar    
  23 H23           -0.8806    -0.6264     0.0074 H       
  24 H24            1.4796    -1.5261    -0.0199 H       
  25 H25            2.5040     4.9180     0.0039 H       
  26 H26            4.3221     1.4644    -1.6653 H       
  27 H27            6.6655     0.4436    -1.0880 H       
  28 H28            3.7838    -1.2313     1.6006 H       
  29 H29            6.1990    -2.4155     1.5347 H       
  30 H30            7.4105    -1.7247     0.4286 H       
  31 H31            7.5575     0.1678     1.9463 H       
  32 H32            7.8432    -2.4164     3.3349 H       
  33 H33            9.0547    -1.7256     2.2288 H       
  34 H34           10.3334     0.2421     2.8589 H       
  35 H35            7.4366    -1.4200     5.5113 H       
  36 H36            8.3647    -0.0858     7.3610 H       
  37 H37           10.2808     1.4082     6.9610 H       
  38 H38           11.2617     1.5762     4.7087 H       
@<TRIPOS>BOND
   1    1    2 1
   2    1    5 1
   3    2    3 2
   4    2   23 1
   5    3    4 1
   6    3   24 1
   7    4    5 2
   8    4    9 1
   9    5    6 1
  10    6    7 2
  11    6    8 1
  12    8   25 1
  13    9   10 1
  14    9   13 1
  15   10   11 2
  16   10   26 1
  17   11   12 1
  18   11   27 1
  19   12   13 2
  20   12   14 1
  21   13   28 1
  22   14   15 1
  23   14   29 1
  24   14   30 1
  25   15   16 1
  26   15   31 1
  27   16   17 1
  28   16   32 1
  29   16   33 1
  30   17   19 ar
  31   17   18 ar
  32   18   22 ar
  33   18   34 1
  34   19   20 ar
  35   19   35 1
  36   20   21 ar
  37   20   36 1
  38   21   22 ar
  39   21   37 1
  40   22   38 1

#	End of record

