#	Name: ASD01884391
#	Creating user name:	WinNT
#	Creation time:	15. 06. 2019 19:48

#	Modifying user name:	WinNT
#	Modification time:	15. 06. 2019 19:48

#	Program:	/corina/corina34_cracker 3.40 0067  02.08.2006

@<TRIPOS>MOLECULE
ASD01884391
  69   71    0    0    0
SMALL
NO_CHARGES


@<TRIPOS>ATOM
   1 C1            -0.5006     1.0271    -0.0441 C.2     
   2 C2            -0.4280    -0.3622     0.0183 C.2     
   3 C3            -1.6088    -1.0959     0.1410 C.2     
   4 C4            -2.8047    -0.4575     0.1976 C.2     
   5 N5            -2.8832     0.8941     0.1375 N.am    
   6 C6            -1.7743     1.6498     0.0249 C.2     
   7 O7            -1.8648     2.8643    -0.0278 O.2     
   8 C8            -4.1947     1.5436     0.2015 C.3     
   9 C9             0.6892     1.8140    -0.1697 C.1     
  10 N10            1.6331     2.4382    -0.2693 N.1     
  11 N11            1.3841    -1.3297     1.3163 N.3     
  12 C12            2.5566    -2.2154     1.2980 C.3     
  13 C13            3.0721    -2.4046     2.7266 C.3     
  14 N14            2.0017    -2.9698     3.5600 N.3     
  15 C15            0.8292    -2.0842     3.5783 C.3     
  16 C16            0.3137    -1.8949     2.1497 C.3     
  17 N17            2.4761    -3.2343     4.9087 N.3     
  18 C18           -4.5465     1.8398     1.6608 C.3     
  19 C19            0.9048    -1.0625    -0.0463 C.3     
  20 C20           -5.9163     2.5181     1.7276 C.3     
  21 C21           -6.3238     2.7015     3.1909 C.3     
  22 C22           -5.8425     3.8848     1.0437 C.3     
  23 C23            3.4711    -4.3150     4.9143 C.3     
  24 C24            3.0187    -2.0159     5.5243 C.3     
  25 C25            2.8104    -5.6190     4.4628 C.3     
  26 C26            3.8548    -6.6999     4.3537 C.ar    
  27 C27            4.1434    -7.4949     5.4468 C.ar    
  28 C28            5.1016    -8.4865     5.3467 C.ar    
  29 C29            5.7707    -8.6830     4.1533 C.ar    
  30 C30            5.4813    -7.8884     3.0596 C.ar    
  31 C31            4.5203    -6.8999     3.1584 C.ar    
  32 C32            6.2111    -8.1024     1.7586 C.3     
  33 F33            7.1245    -9.1521     1.9034 F       
  34 F34            5.2905    -8.4204     0.7543 F       
  35 F35            6.8959    -6.9332     1.4102 F       
  36 H36           -1.5706    -2.1741     0.1908 H       
  37 H37           -3.7110    -1.0373     0.2919 H       
  38 H38           -4.1662     2.4764    -0.3618 H       
  39 H39           -4.9485     0.8832    -0.2272 H       
  40 H40            2.2752    -3.1827     0.8818 H       
  41 H41            3.3398    -1.7693     0.6849 H       
  42 H42            3.9242    -3.0843     2.7187 H       
  43 H43            3.3790    -1.4409     3.1331 H       
  44 H44            0.0461    -2.5302     4.1914 H       
  45 H45            1.1106    -1.1168     3.9945 H       
  46 H46           -0.5383    -1.2152     2.1576 H       
  47 H47            0.0069    -2.8586     1.7432 H       
  48 H48           -4.5751     0.9071     2.2241 H       
  49 H49           -3.7927     2.5002     2.0894 H       
  50 H50            0.7948    -2.0042    -0.5840 H       
  51 H51            1.6233    -0.4289    -0.5665 H       
  52 H52           -6.6544     1.8972     1.2200 H       
  53 H53           -5.5856     3.3224     3.6985 H       
  54 H54           -7.2996     3.1847     3.2385 H       
  55 H55           -6.3763     1.7278     3.6781 H       
  56 H56           -5.1044     4.5057     1.5513 H       
  57 H57           -5.5523     3.7542     0.0012 H       
  58 H58           -6.8184     4.3680     1.0913 H       
  59 H59            4.2837    -4.0643     4.2324 H       
  60 H60            3.8676    -4.4386     5.9221 H       
  61 H61            2.2401    -1.2546     5.5707 H       
  62 H62            3.3664    -2.2420     6.5324 H       
  63 H63            3.8524    -1.6472     4.9267 H       
  64 H64            2.0557    -5.9152     5.1914 H       
  65 H65            2.3388    -5.4700     3.4915 H       
  66 H66            3.6206    -7.3413     6.3793 H       
  67 H67            5.3277    -9.1072     6.2011 H       
  68 H68            6.5197    -9.4572     4.0753 H       
  69 H69            4.2943    -6.2792     2.3040 H       
@<TRIPOS>BOND
   1    1    2 2
   2    1    9 1
   3    1    6 1
   4    2    3 1
   5    2   19 1
   6    3    4 2
   7    3   36 1
   8    4    5 1
   9    4   37 1
  10    5    6 am
  11    5    8 1
  12    6    7 2
  13    8   18 1
  14    8   38 1
  15    8   39 1
  16    9   10 3
  17   11   12 1
  18   11   16 1
  19   11   19 1
  20   12   13 1
  21   12   40 1
  22   12   41 1
  23   13   14 1
  24   13   42 1
  25   13   43 1
  26   14   15 1
  27   14   17 1
  28   15   16 1
  29   15   44 1
  30   15   45 1
  31   16   46 1
  32   16   47 1
  33   17   23 1
  34   17   24 1
  35   18   20 1
  36   18   48 1
  37   18   49 1
  38   19   50 1
  39   19   51 1
  40   20   21 1
  41   20   22 1
  42   20   52 1
  43   21   53 1
  44   21   54 1
  45   21   55 1
  46   22   56 1
  47   22   57 1
  48   22   58 1
  49   23   25 1
  50   23   59 1
  51   23   60 1
  52   24   61 1
  53   24   62 1
  54   24   63 1
  55   25   26 1
  56   25   64 1
  57   25   65 1
  58   26   27 ar
  59   26   31 ar
  60   27   28 ar
  61   27   66 1
  62   28   29 ar
  63   28   67 1
  64   29   30 ar
  65   29   68 1
  66   30   32 1
  67   30   31 ar
  68   31   69 1
  69   32   33 1
  70   32   34 1
  71   32   35 1

#	End of record

