#	Name: ASD05430714
#	Creating user name:	WinNT
#	Creation time:	15. 06. 2019 21:00

#	Modifying user name:	WinNT
#	Modification time:	15. 06. 2019 21:00

#	Program:	/corina/corina34_cracker 3.40 0067  02.08.2006

@<TRIPOS>MOLECULE
ASD05430714
  56   60    0    0    0
SMALL
NO_CHARGES


@<TRIPOS>ATOM
   1 C1             0.0110     1.6036     0.1566 C.2     
   2 C2             0.1083     0.2070     0.0897 C.2     
   3 N3            -1.0402    -0.5594     0.0163 N.pl3   
   4 C4            -2.2030     0.0700     0.4425 C.2     
   5 N5            -2.3783     1.4231     0.2399 N.am    
   6 C6            -1.3040     2.2521     0.1392 C.2     
   7 O7            -1.4272     3.4594     0.0438 O.2     
   8 C8            -3.7322     1.9720     0.1302 C.3     
   9 C9            -3.9774     2.9572     1.2748 C.3     
  10 C10           -3.8790     2.6871    -1.1882 C.ar    
  11 C11           -3.2054     2.2251    -2.3031 C.ar    
  12 C12           -3.3395     2.8813    -3.5150 C.ar    
  13 C13           -4.1486     4.0005    -3.6097 C.ar    
  14 C14           -4.8227     4.4623    -2.4924 C.ar    
  15 C15           -4.6915     3.8011    -1.2828 C.ar    
  16 N16            1.2607     2.0891     0.2234 N.2     
  17 C17            2.1050     1.0928     0.1997 C.2     
  18 N18            1.4187    -0.0893     0.1159 N.pl3   
  19 F19           -5.6123     5.5548    -2.5832 F       
  20 F20           -2.6806     2.4298    -4.6046 F       
  21 N21           -3.1340    -0.6222     1.0371 N.2     
  22 C22           -2.9523    -2.0596     1.2541 C.3     
  23 C23           -2.9723    -2.5642     2.6983 C.3     
  24 C24           -4.1539    -2.8535     1.7705 C.3     
  25 C25            1.2199    -2.9473    -3.3021 C.ar    
  26 C26            2.3794    -2.6657    -4.0099 C.ar    
  27 C27            3.4174    -1.9826    -3.3929 C.ar    
  28 C28            3.2939    -1.5842    -2.0759 C.ar    
  29 C29            2.1373    -1.8661    -1.3727 C.ar    
  30 C30            1.1016    -2.5471    -1.9852 C.ar    
  31 C31            2.0055    -1.4307     0.0640 C.3     
  32 O32            2.4985    -3.0587    -5.3054 O.3     
  33 C33            3.7202    -2.7347    -5.9720 C.3     
  34 H34           -1.0344    -1.4728    -0.3104 H       
  35 H35           -4.4586     1.1613     0.1866 H       
  36 H36           -3.8712     2.4400     2.2284 H       
  37 H37           -3.2510     3.7679     1.2183 H       
  38 H38           -4.9847     3.3656     1.1932 H       
  39 H39           -2.5739     1.3521    -2.2290 H       
  40 H40           -4.2535     4.5132    -4.5544 H       
  41 H41           -5.2176     4.1610    -0.4110 H       
  42 H42            3.1802     1.1868     0.2402 H       
  43 H43           -2.2811    -2.5593     0.5556 H       
  44 H44           -2.3145    -3.3961     2.9500 H       
  45 H45           -3.1205    -1.8266     3.4871 H       
  46 H46           -5.0796    -2.3063     1.9489 H       
  47 H47           -4.2735    -3.8758     1.4117 H       
  48 H48            0.4088    -3.4751    -3.7816 H       
  49 H49            4.3211    -1.7625    -3.9416 H       
  50 H50            4.1016    -1.0524    -1.5951 H       
  51 H51            0.1992    -2.7661    -1.4338 H       
  52 H52            2.9904    -1.4147     0.5307 H       
  53 H53            1.3617    -2.1297     0.5979 H       
  54 H54            3.8535    -1.6529    -5.9807 H       
  55 H55            4.5549    -3.1994    -5.4471 H       
  56 H56            3.6842    -3.1046    -6.9967 H       
@<TRIPOS>BOND
   1    1    2 2
   2    1   16 1
   3    1    6 1
   4    2    3 1
   5    2   18 1
   6    3    4 1
   7    3   34 1
   8    4    5 1
   9    4   21 2
  10    5    6 am
  11    5    8 1
  12    6    7 2
  13    8    9 1
  14    8   10 1
  15    8   35 1
  16    9   36 1
  17    9   37 1
  18    9   38 1
  19   10   11 ar
  20   10   15 ar
  21   11   12 ar
  22   11   39 1
  23   12   13 ar
  24   12   20 1
  25   13   14 ar
  26   13   40 1
  27   14   15 ar
  28   14   19 1
  29   15   41 1
  30   16   17 2
  31   17   18 1
  32   17   42 1
  33   18   31 1
  34   21   22 1
  35   22   23 1
  36   22   24 1
  37   22   43 1
  38   23   24 1
  39   23   44 1
  40   23   45 1
  41   24   46 1
  42   24   47 1
  43   25   26 ar
  44   25   30 ar
  45   25   48 1
  46   26   27 ar
  47   26   32 1
  48   27   28 ar
  49   27   49 1
  50   28   29 ar
  51   28   50 1
  52   29   30 ar
  53   29   31 1
  54   30   51 1
  55   31   52 1
  56   31   53 1
  57   32   33 1
  58   33   54 1
  59   33   55 1
  60   33   56 1

#	End of record

