#	Name: ASD01900215
#	Creating user name:	WinNT
#	Creation time:	15. 06. 2019 19:51

#	Modifying user name:	WinNT
#	Modification time:	15. 06. 2019 19:51

#	Program:	/corina/corina34_cracker 3.40 0067  02.08.2006

@<TRIPOS>MOLECULE
ASD01900215
  48   50    0    0    0
SMALL
NO_CHARGES


@<TRIPOS>ATOM
   1 C1            -0.0168     1.3887     0.0097 C.ar    
   2 C2             0.0021    -0.0041     0.0020 C.ar    
   3 C3            -1.2003    -0.6938     0.0103 C.ar    
   4 C4            -2.3798     0.0338     0.0259 C.ar    
   5 C5            -2.3237     1.4186     0.0328 C.ar    
   6 N6            -1.1690     2.0478     0.0297 N.ar    
   7 C7             1.2594     2.1406     0.0015 C.2     
   8 O8             2.3173     1.5421    -0.0118 O.2     
   9 N9             1.2477     3.4883     0.0089 N.am    
  10 C10            2.4592     4.2021     0.0011 C.2     
  11 C11            3.7581     3.6467    -0.0147 C.2     
  12 C12            4.6358     4.6702    -0.0179 C.2     
  13 N13            3.9336     5.8385    -0.0047 N.am    
  14 C14            2.5970     5.5485     0.0016 C.2     
  15 S15            4.5906     7.3586    -0.0025 S.o2    
  16 O16            3.6082     8.2195     0.5568 O.2     
  17 O17            5.9023     7.2280     0.5281 O.2     
  18 C18            4.7807     7.8470    -1.6847 C.ar    
  19 C19            3.7565     8.5135    -2.3309 C.ar    
  20 C20            5.9563     7.5687    -2.3566 C.ar    
  21 C21            6.1054     7.9519    -3.6764 C.ar    
  22 C22            5.0788     8.6130    -4.3244 C.ar    
  23 C23            3.9056     8.8967    -3.6507 C.ar    
  24 C24            5.2416     9.0312    -5.7630 C.3     
  25 C25            4.7529     7.9075    -6.6792 C.3     
  26 C26            3.2487     7.7077    -6.4835 C.3     
  27 C27            5.0326     8.2798    -8.1367 C.3     
  28 H28            0.9402    -0.5390    -0.0105 H       
  29 H29           -1.2176    -1.7736     0.0043 H       
  30 H30           -3.3333    -0.4733     0.0323 H       
  31 H31           -3.2409     1.9887     0.0446 H       
  32 H32            0.4034     3.9659     0.0195 H       
  33 H33            4.0031     2.5949    -0.0223 H       
  34 H34            5.7119     4.5797    -0.0285 H       
  35 H35            1.7920     6.2683     0.0118 H       
  36 H36            2.8396     8.7346    -1.8047 H       
  37 H37            6.7583     7.0522    -1.8504 H       
  38 H38            7.0242     7.7350    -4.2011 H       
  39 H39            3.1035     9.4132    -4.1569 H       
  40 H40            4.6559     9.9316    -5.9482 H       
  41 H41            6.2933     9.2338    -5.9657 H       
  42 H42            5.2772     6.9841    -6.4331 H       
  43 H43            3.0495     7.4425    -5.4452 H       
  44 H44            2.7245     8.6311    -6.7297 H       
  45 H45            2.9006     6.9072    -7.1363 H       
  46 H46            6.1043     8.4221    -8.2761 H       
  47 H47            4.6845     7.4792    -8.7894 H       
  48 H48            4.5084     9.2032    -8.3828 H       
@<TRIPOS>BOND
   1    1    2 ar
   2    1    7 1
   3    1    6 ar
   4    2    3 ar
   5    2   28 1
   6    3    4 ar
   7    3   29 1
   8    4    5 ar
   9    4   30 1
  10    5    6 ar
  11    5   31 1
  12    7    8 2
  13    7    9 am
  14    9   10 1
  15    9   32 1
  16   10   11 1
  17   10   14 2
  18   11   12 2
  19   11   33 1
  20   12   13 1
  21   12   34 1
  22   13   14 1
  23   13   15 am
  24   14   35 1
  25   15   16 2
  26   15   17 2
  27   15   18 1
  28   18   19 ar
  29   18   20 ar
  30   19   23 ar
  31   19   36 1
  32   20   21 ar
  33   20   37 1
  34   21   22 ar
  35   21   38 1
  36   22   23 ar
  37   22   24 1
  38   23   39 1
  39   24   25 1
  40   24   40 1
  41   24   41 1
  42   25   26 1
  43   25   27 1
  44   25   42 1
  45   26   43 1
  46   26   44 1
  47   26   45 1
  48   27   46 1
  49   27   47 1
  50   27   48 1

#	End of record

