#	Name: ASD06770004
#	Creating user name:	WinNT
#	Creation time:	15. 06. 2019 21:08

#	Modifying user name:	WinNT
#	Modification time:	15. 06. 2019 21:08

#	Program:	/corina/corina34_cracker 3.40 0067  02.08.2006

@<TRIPOS>MOLECULE
ASD06770004
  48   52    0    0    0
SMALL
NO_CHARGES


@<TRIPOS>ATOM
   1 N1            -0.0154     1.2860     0.0091 N.2     
   2 N2             0.0021    -0.0041     0.0020 N.2     
   3 C3             1.2407    -0.4345    -0.0105 C.2     
   4 N4             2.0276     0.6565    -0.0090 N.pl3   
   5 C5             3.4177     0.8214    -0.0112 C.ar    
   6 C6             3.9519     1.7655     0.8656 C.ar    
   7 C7             3.0373     2.4384     1.8453 C.3     
   8 O8             2.2488     3.4953     1.2750 O.3     
   9 C9             1.6971     3.1565    -0.0055 C.3     
  10 C10            1.2006     1.7401    -0.0001 C.2     
  11 C11            5.3036     2.0325     0.8401 C.ar    
  12 C12            6.1309     1.3250    -0.0161 C.ar    
  13 C13            5.6068     0.3515    -0.8480 C.ar    
  14 C14            4.2465     0.0994    -0.8478 C.ar    
  15 C15            1.6942    -1.8716    -0.0240 C.3     
  16 C16            1.1690    -2.5838     1.2241 C.3     
  17 C17            1.6295    -4.0428     1.2104 C.3     
  18 C18            1.0860    -4.7374    -0.0399 C.3     
  19 C19            1.6112    -4.0252    -1.2880 C.3     
  20 C20            1.1508    -2.5661    -1.2743 C.3     
  21 O21            1.5161    -6.1001    -0.0527 O.3     
  22 Cl22           7.8337     1.6616    -0.0460 Cl      
  23 C23            0.6987    -6.9983    -0.6575 C.ar    
  24 N24           -0.4406    -6.5975    -1.2025 N.ar    
  25 C25            1.0576    -8.3413    -0.7119 C.ar    
  26 N26            0.2601    -9.2123    -1.3010 N.ar    
  27 C27           -0.8787    -8.8096    -1.8390 C.ar    
  28 C28           -1.2353    -7.4753    -1.7913 C.ar    
  29 H29            2.3645     1.6896     2.2635 H       
  30 H30            3.6388     2.8516     2.6550 H       
  31 H31            0.8690     3.8284    -0.2309 H       
  32 H32            2.4661     3.2664    -0.7702 H       
  33 H33            5.7170     2.7925     1.4866 H       
  34 H34            6.2600    -0.2119    -1.4979 H       
  35 H35            3.8348    -0.6583    -1.4980 H       
  36 H36            2.7835    -1.9087    -0.0322 H       
  37 H37            1.5562    -2.0890     2.1148 H       
  38 H38            0.0797    -2.5467     1.2323 H       
  39 H39            2.7188    -4.0800     1.2022 H       
  40 H40            1.2553    -4.5503     2.0996 H       
  41 H41           -0.0033    -4.7003    -0.0317 H       
  42 H42            2.7006    -4.0623    -1.2962 H       
  43 H43            1.2241    -4.5200    -2.1787 H       
  44 H44            0.0615    -2.5290    -1.2661 H       
  45 H45            1.5249    -2.0587    -2.1634 H       
  46 H46            1.9878    -8.6706    -0.2730 H       
  47 H47           -1.5296    -9.5243    -2.3206 H       
  48 H48           -2.1663    -7.1498    -2.2314 H       
@<TRIPOS>BOND
   1    1    2 1
   2    1   10 2
   3    2    3 2
   4    3    4 1
   5    3   15 1
   6    4    5 1
   7    4   10 1
   8    5    6 ar
   9    5   14 ar
  10    6    7 1
  11    6   11 ar
  12    7    8 1
  13    7   29 1
  14    7   30 1
  15    8    9 1
  16    9   10 1
  17    9   31 1
  18    9   32 1
  19   11   12 ar
  20   11   33 1
  21   12   13 ar
  22   12   22 1
  23   13   14 ar
  24   13   34 1
  25   14   35 1
  26   15   16 1
  27   15   20 1
  28   15   36 1
  29   16   17 1
  30   16   37 1
  31   16   38 1
  32   17   18 1
  33   17   39 1
  34   17   40 1
  35   18   19 1
  36   18   21 1
  37   18   41 1
  38   19   20 1
  39   19   42 1
  40   19   43 1
  41   20   44 1
  42   20   45 1
  43   21   23 1
  44   23   24 ar
  45   23   25 ar
  46   24   28 ar
  47   25   26 ar
  48   25   46 1
  49   26   27 ar
  50   27   28 ar
  51   27   47 1
  52   28   48 1

#	End of record

