#	Name: ASD01917163
#	Creating user name:	WinNT
#	Creation time:	15. 06. 2019 20:08

#	Modifying user name:	WinNT
#	Modification time:	15. 06. 2019 20:08

#	Program:	/corina/corina34_cracker 3.40 0067  02.08.2006

@<TRIPOS>MOLECULE
ASD01917163
  76   81    0    0    0
SMALL
NO_CHARGES


@<TRIPOS>ATOM
   1 C1             0.0203     1.7433    -0.2122 C.2     
   2 N2             0.0252     0.4528    -0.4677 N.2     
   3 N3            -1.3093     0.0196    -0.4091 N.pl3   
   4 C4            -2.0532     1.1109    -0.1131 C.2     
   5 N5            -1.2388     2.1380     0.0073 N.2     
   6 C6             1.2182     2.6182    -0.1683 C.ar    
   7 C7             1.0819     3.9758     0.1146 C.ar    
   8 C8             2.4830     2.0833    -0.4041 C.ar    
   9 C9             3.5942     2.9002    -0.3618 C.ar    
  10 C10            3.4536     4.2505    -0.0854 C.ar    
  11 C11           -1.7994    -1.3439    -0.6255 C.3     
  12 C12           -1.7938    -2.0932     0.6820 C.2     
  13 N13           -2.2070    -3.3753     0.7258 N.am    
  14 O14           -1.4176    -1.5424     1.6949 O.2     
  15 C15           -2.2097    -4.1248     1.9913 C.3     
  16 C16           -3.5928    -4.7570     2.1797 C.3     
  17 N17           -3.9328    -5.5473     0.9890 N.3     
  18 C18           -4.0323    -4.6967    -0.2046 C.3     
  19 C19           -2.6730    -4.0601    -0.4896 C.3     
  20 C20           -5.1020    -6.2650     1.1864 C.ar    
  21 C21           -5.6072    -7.0840     0.1795 C.ar    
  22 C22           -6.7819    -7.7823     0.4265 C.ar    
  23 N23           -7.3791    -7.6455     1.6074 N.ar    
  24 C24           -6.8710    -6.8610     2.5359 C.ar    
  25 N25           -5.7560    -6.1860     2.3432 N.ar    
  26 C26           -3.5232     1.1425     0.0519 C.ar    
  27 C27            2.1984     4.7855     0.1549 C.ar    
  28 C28           -4.2242    -0.0361     0.3091 C.ar    
  29 C29           -5.5944    -0.0012     0.4621 C.ar    
  30 C30           -6.2750     1.2017     0.3603 C.ar    
  31 C31           -5.5833     2.3752     0.1049 C.ar    
  32 C32           -4.2123     2.3519    -0.0435 C.ar    
  33 F33            4.5443     5.0468    -0.0445 F       
  34 F34           -7.6174     1.2305     0.5100 F       
  35 O35           -7.3129    -8.5916    -0.5224 O.3     
  36 C36           -8.5232    -9.2745    -0.1895 C.3     
  37 C37           -9.3487    -9.4972    -1.4588 C.3     
  38 C38           -8.1879   -10.6255     0.4466 C.3     
  39 C39           -9.4868   -11.3395     0.8336 C.3     
  40 N40          -10.3491   -11.4285    -0.3526 N.am    
  41 C41          -10.6607   -10.1985    -1.0933 C.3     
  42 C42          -10.8445   -12.6159    -0.7539 C.2     
  43 O43          -11.6263   -12.6651    -1.6798 O.2     
  44 C44          -10.4268   -13.8826    -0.0523 C.3     
  45 H45            0.1038     4.3937     0.3017 H       
  46 H46            2.5935     1.0307    -0.6193 H       
  47 H47            4.5749     2.4863    -0.5441 H       
  48 H48           -2.8153    -1.3067    -1.0186 H       
  49 H49           -1.1521    -1.8537    -1.3391 H       
  50 H50           -1.4514    -4.9070     1.9551 H       
  51 H51           -2.0011    -3.4468     2.8188 H       
  52 H52           -3.5799    -5.4059     3.0554 H       
  53 H53           -4.3357    -3.9717     2.3193 H       
  54 H54           -4.3382    -5.3018    -1.0580 H       
  55 H55           -4.7691    -3.9122    -0.0317 H       
  56 H56           -2.7687    -3.3410    -1.3031 H       
  57 H57           -1.9564    -4.8343    -0.7640 H       
  58 H58           -5.0986    -7.1734    -0.7691 H       
  59 H59           -7.3807    -6.7721     3.4839 H       
  60 H60            2.0932     5.8387     0.3697 H       
  61 H61           -3.6948    -0.9741     0.3878 H       
  62 H62           -6.1380    -0.9130     0.6611 H       
  63 H63           -6.1183     3.3101     0.0262 H       
  64 H64           -3.6742     3.2669    -0.2424 H       
  65 H65           -9.0969    -8.6736     0.5161 H       
  66 H66           -9.5672    -8.5360    -1.9239 H       
  67 H67           -8.7854   -10.1190    -2.1547 H       
  68 H68           -7.6355   -11.2366    -0.2672 H       
  69 H69           -7.5803   -10.4673     1.3376 H       
  70 H70           -9.2587   -12.3421     1.1956 H       
  71 H71           -9.9960   -10.7741     1.6140 H       
  72 H72          -11.2657    -9.5400    -0.4701 H       
  73 H73          -11.2072   -10.4481    -2.0028 H       
  74 H74           -9.8023   -13.6337     0.8057 H       
  75 H75          -11.3129   -14.4192     0.2868 H       
  76 H76           -9.8632   -14.5110    -0.7418 H       
@<TRIPOS>BOND
   1    1    2 2
   2    1    6 1
   3    1    5 1
   4    2    3 1
   5    3    4 1
   6    3   11 1
   7    4    5 2
   8    4   26 1
   9    6    7 ar
  10    6    8 ar
  11    7   27 ar
  12    7   45 1
  13    8    9 ar
  14    8   46 1
  15    9   10 ar
  16    9   47 1
  17   10   27 ar
  18   10   33 1
  19   11   12 1
  20   11   48 1
  21   11   49 1
  22   12   13 am
  23   12   14 2
  24   13   15 1
  25   13   19 1
  26   15   16 1
  27   15   50 1
  28   15   51 1
  29   16   17 1
  30   16   52 1
  31   16   53 1
  32   17   18 1
  33   17   20 1
  34   18   19 1
  35   18   54 1
  36   18   55 1
  37   19   56 1
  38   19   57 1
  39   20   21 ar
  40   20   25 ar
  41   21   22 ar
  42   21   58 1
  43   22   23 ar
  44   22   35 1
  45   23   24 ar
  46   24   25 ar
  47   24   59 1
  48   26   28 ar
  49   26   32 ar
  50   27   60 1
  51   28   29 ar
  52   28   61 1
  53   29   30 ar
  54   29   62 1
  55   30   31 ar
  56   30   34 1
  57   31   32 ar
  58   31   63 1
  59   32   64 1
  60   35   36 1
  61   36   37 1
  62   36   38 1
  63   36   65 1
  64   37   41 1
  65   37   66 1
  66   37   67 1
  67   38   39 1
  68   38   68 1
  69   38   69 1
  70   39   40 1
  71   39   70 1
  72   39   71 1
  73   40   41 1
  74   40   42 am
  75   41   72 1
  76   41   73 1
  77   42   43 2
  78   42   44 1
  79   44   74 1
  80   44   75 1
  81   44   76 1

#	End of record

