#	Name: ASD02500211
#	Creating user name:	WinNT
#	Creation time:	15. 06. 2019 20:22

#	Modifying user name:	WinNT
#	Modification time:	15. 06. 2019 20:22

#	Program:	/corina/corina34_cracker 3.40 0067  02.08.2006

@<TRIPOS>MOLECULE
ASD02500211
  66   70    0    0    0
SMALL
NO_CHARGES


@<TRIPOS>ATOM
   1 N1             1.7414    -2.0556     1.9974 N.am    
   2 C2             3.0432    -1.3760     2.0554 C.3     
   3 C3             3.7509    -1.5568     0.7068 C.3     
   4 N4             2.8130    -1.2004    -0.3672 N.am    
   5 C5             1.5112    -1.8800    -0.4251 C.3     
   6 C6             0.8036    -1.6992     0.9235 C.3     
   7 C7             1.4157    -2.9928     2.9095 C.2     
   8 O8             2.2014    -3.2827     3.7900 O.2     
   9 O9             0.2198    -3.6079     2.8452 O.3     
  10 C10            3.1408    -0.2668    -1.2823 C.2     
  11 C11            4.4104     0.4740    -1.1581 C.ar    
  12 C12            5.5816    -0.1988    -0.7969 C.ar    
  13 C13            6.7642     0.4949    -0.6819 C.ar    
  14 C14            6.7954     1.8656    -0.9244 C.ar    
  15 C15            5.6310     2.5384    -1.2838 C.ar    
  16 C16            4.4462     1.8489    -1.4070 C.ar    
  17 O17            2.3899    -0.0351    -2.2102 O.2     
  18 S18            7.9862     4.1341    -0.2806 S.o2    
  19 O19            7.1170     4.1776     0.8427 O.2     
  20 O20            9.3456     4.5446    -0.2277 O.2     
  21 N21            7.9920     2.5640    -0.8069 N.am    
  22 N22            8.9549     4.5645    -3.0913 N.ar    
  23 C23            9.5093     4.6511    -4.2760 C.ar    
  24 C24            8.9396     5.4066    -5.2988 C.ar    
  25 C25            7.7725     6.0811    -5.0790 C.ar    
  26 C26            7.1797     5.9855    -3.8057 C.ar    
  27 C27            5.9807     6.6510    -3.5056 C.ar    
  28 C28            5.4391     6.5337    -2.2617 C.ar    
  29 C29            6.0588     5.7609    -1.2822 C.ar    
  30 C30            7.2224     5.1030    -1.5386 C.ar    
  31 C31            7.8127     5.1998    -2.8105 C.ar    
  32 C32            8.0270    -0.2296    -0.2926 C.3     
  33 N33           -1.6700    -5.7138     3.1112 N.3     
  34 C34           -1.5514    -4.7405     4.2129 C.3     
  35 C35           -0.0633    -4.6067     3.8603 C.3     
  36 C36           -0.2430    -6.0286     3.3103 C.3     
  37 C37           -2.5185    -6.8481     3.5000 C.3     
  38 H38            2.8932    -0.3141     2.2503 H       
  39 H39            3.6495    -1.8139     2.8483 H       
  40 H40            4.6236    -0.9053     0.6614 H       
  41 H41            4.0604    -2.5956     0.5924 H       
  42 H42            0.9049    -1.4421    -1.2180 H       
  43 H43            1.6613    -2.9419    -0.6201 H       
  44 H44           -0.0692    -2.3506     0.9689 H       
  45 H45            0.4941    -0.6604     1.0378 H       
  46 H46            5.5579    -1.2619    -0.6080 H       
  47 H47            5.6583     3.6018    -1.4709 H       
  48 H48            3.5441     2.3707    -1.6905 H       
  49 H49            8.8303     2.1314    -1.0332 H       
  50 H50           10.4324     4.1230    -4.4642 H       
  51 H51            9.4207     5.4591    -6.2643 H       
  52 H52            7.3173     6.6717    -5.8603 H       
  53 H53            5.4908     7.2528    -4.2568 H       
  54 H54            4.5166     7.0461    -2.0317 H       
  55 H55            5.6098     5.6842    -0.3030 H       
  56 H56            8.5337    -0.5845    -1.1900 H       
  57 H57            8.6834     0.4506     0.2503 H       
  58 H58            7.7774    -1.0787     0.3436 H       
  59 H59           -2.1207    -3.8258     4.0473 H       
  60 H60           -1.7272    -5.1749     5.1970 H       
  61 H61            0.5961    -4.5397     4.7257 H       
  62 H62           -0.0696    -6.8068     4.0536 H       
  63 H63            0.2966    -6.2057     2.3799 H       
  64 H64           -3.5145    -6.4861     3.7553 H       
  65 H65           -2.5890    -7.5506     2.6696 H       
  66 H66           -2.0817    -7.3494     4.3638 H       
@<TRIPOS>BOND
   1    1    2 1
   2    1    6 1
   3    1    7 am
   4    2    3 1
   5    2   38 1
   6    2   39 1
   7    3    4 1
   8    3   40 1
   9    3   41 1
  10    4    5 1
  11    4   10 am
  12    5    6 1
  13    5   42 1
  14    5   43 1
  15    6   44 1
  16    6   45 1
  17    7    8 2
  18    7    9 1
  19    9   35 1
  20   10   11 1
  21   10   17 2
  22   11   12 ar
  23   11   16 ar
  24   12   13 ar
  25   12   46 1
  26   13   14 ar
  27   13   32 1
  28   14   15 ar
  29   14   21 1
  30   15   16 ar
  31   15   47 1
  32   16   48 1
  33   18   19 2
  34   18   20 2
  35   18   21 am
  36   18   30 1
  37   21   49 1
  38   22   23 ar
  39   22   31 ar
  40   23   24 ar
  41   23   50 1
  42   24   25 ar
  43   24   51 1
  44   25   26 ar
  45   25   52 1
  46   26   27 ar
  47   26   31 ar
  48   27   28 ar
  49   27   53 1
  50   28   29 ar
  51   28   54 1
  52   29   30 ar
  53   29   55 1
  54   30   31 ar
  55   32   56 1
  56   32   57 1
  57   32   58 1
  58   33   34 1
  59   33   36 1
  60   33   37 1
  61   34   35 1
  62   34   59 1
  63   34   60 1
  64   35   36 1
  65   35   61 1
  66   36   62 1
  67   36   63 1
  68   37   64 1
  69   37   65 1
  70   37   66 1

#	End of record

