#	Name: ASD02030435
#	Creating user name:	WinNT
#	Creation time:	15. 06. 2019 20:15

#	Modifying user name:	WinNT
#	Modification time:	15. 06. 2019 20:15

#	Program:	/corina/corina34_cracker 3.40 0067  02.08.2006

@<TRIPOS>MOLECULE
ASD02030435
  40   42    0    0    0
SMALL
NO_CHARGES


@<TRIPOS>ATOM
   1 C1             0.0281     1.1471     0.0347 C.2     
   2 O2             0.0896    -0.0667     0.0110 O.2     
   3 N3             3.3195     2.4721     0.0381 N.pl3   
   4 N4             2.4953     1.4833     0.0956 N.2     
   5 C5             1.2686     1.9508     0.0090 C.2     
   6 N6             1.3421     3.2895    -0.1072 N.2     
   7 C7             2.6102     3.6124    -0.0892 C.2     
   8 C8             4.7163     2.3792     0.1030 C.ar    
   9 C9             5.3250     1.1390     0.2409 C.ar    
  10 C10            6.7039     1.0508     0.3042 C.ar    
  11 C11            7.4759     2.1987     0.2305 C.ar    
  12 C12            6.8706     3.4338     0.0937 C.ar    
  13 C13            5.4940     3.5266     0.0238 C.ar    
  14 F14            7.2980    -0.1551     0.4383 F       
  15 N15           -1.1713     1.7603     0.0788 N.am    
  16 C16           -2.4181     0.9895    -0.0413 C.3     
  17 C17           -3.3398     1.3702     1.1221 C.3     
  18 N18           -3.5116     2.8289     1.1495 N.3     
  19 C19           -2.2350     3.5111     1.4004 C.3     
  20 C20           -1.2682     3.2174     0.2544 C.3     
  21 C21           -3.1021     1.3220    -1.3689 C.3     
  22 C22           -2.1051    -0.5069     0.0194 C.3     
  23 H23            3.0154     4.6108    -0.1630 H       
  24 H24            4.7226     0.2445     0.2990 H       
  25 H25            8.5524     2.1285     0.2804 H       
  26 H26            7.4749     4.3271     0.0368 H       
  27 H27            5.0227     4.4919    -0.0876 H       
  28 H28           -4.3103     0.8922     0.9888 H       
  29 H29           -2.8964     1.0385     2.0610 H       
  30 H30           -3.9364     3.1590     0.2959 H       
  31 H31           -2.4043     4.5857     1.4688 H       
  32 H32           -1.8070     3.1496     2.3354 H       
  33 H33           -0.2853     3.6236     0.4931 H       
  34 H34           -1.6428     3.6726    -0.6624 H       
  35 H35           -2.4375     1.0662    -2.1941 H       
  36 H36           -4.0256     0.7495    -1.4553 H       
  37 H37           -3.3305     2.3873    -1.4032 H       
  38 H38           -1.5420    -0.7238     0.9271 H       
  39 H39           -3.0365    -1.0730     0.0257 H       
  40 H40           -1.5138    -0.7901    -0.8514 H       
@<TRIPOS>BOND
   1    1    2 2
   2    1    5 1
   3    1   15 am
   4    3    4 1
   5    3    7 1
   6    3    8 1
   7    4    5 2
   8    5    6 1
   9    6    7 2
  10    7   23 1
  11    8    9 ar
  12    8   13 ar
  13    9   10 ar
  14    9   24 1
  15   10   11 ar
  16   10   14 1
  17   11   12 ar
  18   11   25 1
  19   12   13 ar
  20   12   26 1
  21   13   27 1
  22   15   16 1
  23   15   20 1
  24   16   17 1
  25   16   21 1
  26   16   22 1
  27   17   18 1
  28   17   28 1
  29   17   29 1
  30   18   19 1
  31   18   30 1
  32   19   20 1
  33   19   31 1
  34   19   32 1
  35   20   33 1
  36   20   34 1
  37   21   35 1
  38   21   36 1
  39   21   37 1
  40   22   38 1
  41   22   39 1
  42   22   40 1

#	End of record

