#	Name: ASD01420333
#	Creating user name:	WinNT
#	Creation time:	15. 06. 2019 19:20

#	Modifying user name:	WinNT
#	Modification time:	15. 06. 2019 19:20

#	Program:	/corina/corina34_cracker 3.40 0067  02.08.2006

@<TRIPOS>MOLECULE
ASD01420333
  38   40    0    0    0
SMALL
NO_CHARGES


@<TRIPOS>ATOM
   1 C1            -0.0178     1.4621     0.0101 C.3     
   2 N2             0.0021    -0.0041     0.0020 N.am    
   3 C3             1.4109    -0.4106    -0.0136 C.3     
   4 C4             2.2496     0.8424    -0.0149 C.ar    
   5 C5             3.6224     1.0209    -0.0275 C.ar    
   6 C6             4.1554     2.2954    -0.0257 C.ar    
   7 C7             3.3169     3.3945    -0.0117 C.ar    
   8 C8             1.9469     3.2171     0.0003 C.ar    
   9 C9             1.4122     1.9401    -0.0010 C.ar    
  10 C10           -1.0694    -0.8216     0.0083 C.2     
  11 O11           -0.9142    -2.0267     0.0007 O.2     
  12 O12           -2.3118    -0.3030     0.0228 O.3     
  13 C13            5.6501     2.4875    -0.0383 C.3     
  14 O14            6.1102     2.5553    -1.3895 O.3     
  15 C15           -3.4185    -1.2429     0.0288 C.3     
  16 C16           -4.7210    -0.4852     0.0452 C.ar    
  17 C17           -5.3300    -0.1317    -1.1444 C.ar    
  18 C18           -6.5248     0.5634    -1.1294 C.ar    
  19 C19           -7.1108     0.9046     0.0752 C.ar    
  20 C20           -6.5023     0.5503     1.2648 C.ar    
  21 C21           -5.3097    -0.1486     1.2498 C.ar    
  22 H22           -0.5370     1.8294    -0.8752 H       
  23 H23           -0.5199     1.8199     0.9090 H       
  24 H24            1.6341    -1.0037     0.8732 H       
  25 H25            1.6171    -0.9941    -0.9109 H       
  26 H26            4.2777     0.1625    -0.0383 H       
  27 H27            3.7326     4.3913    -0.0100 H       
  28 H28            1.2921     4.0758     0.0116 H       
  29 H29            5.9017     3.4139     0.4781 H       
  30 H30            6.1286     1.6485     0.4667 H       
  31 H31            7.0656     2.6786    -1.4740 H       
  32 H32           -3.3714    -1.8653    -0.8648 H       
  33 H33           -3.3542    -1.8742     0.9151 H       
  34 H34           -4.8721    -0.3982    -2.0855 H       
  35 H35           -7.0002     0.8403    -2.0587 H       
  36 H36           -8.0439     1.4483     0.0870 H       
  37 H37           -6.9600     0.8171     2.2059 H       
  38 H38           -4.8362    -0.4287     2.1791 H       
@<TRIPOS>BOND
   1    1    2 1
   2    1    9 1
   3    1   22 1
   4    1   23 1
   5    2    3 1
   6    2   10 am
   7    3    4 1
   8    3   24 1
   9    3   25 1
  10    4    5 ar
  11    4    9 ar
  12    5    6 ar
  13    5   26 1
  14    6    7 ar
  15    6   13 1
  16    7    8 ar
  17    7   27 1
  18    8    9 ar
  19    8   28 1
  20   10   11 2
  21   10   12 1
  22   12   15 1
  23   13   14 1
  24   13   29 1
  25   13   30 1
  26   14   31 1
  27   15   16 1
  28   15   32 1
  29   15   33 1
  30   16   17 ar
  31   16   21 ar
  32   17   18 ar
  33   17   34 1
  34   18   19 ar
  35   18   35 1
  36   19   20 ar
  37   19   36 1
  38   20   21 ar
  39   20   37 1
  40   21   38 1

#	End of record

