#	Name: ASD01911513
#	Creating user name:	WinNT
#	Creation time:	15. 06. 2019 19:57

#	Modifying user name:	WinNT
#	Modification time:	15. 06. 2019 19:57

#	Program:	/corina/corina34_cracker 3.40 0067  02.08.2006

@<TRIPOS>MOLECULE
ASD01911513
  21   21    0    0    0
SMALL
NO_CHARGES


@<TRIPOS>ATOM
   1 C1            -0.0161     1.3372     0.0094 C.2     
   2 N2             0.0021    -0.0041     0.0020 N.am    
   3 C3             1.2623    -0.7483    -0.0265 C.3     
   4 C4             2.3522     0.0821     0.6598 C.3     
   5 C5             2.4273     1.4505    -0.0259 C.3     
   6 N6             1.1039     2.0753     0.0027 N.am    
   7 O7            -1.0905     1.9064     0.0175 O.2     
   8 C8             1.0889    -2.0761     0.7136 C.3     
   9 C9             1.6635    -1.0189    -1.4779 C.3     
  10 H10           -0.8369    -0.4907     0.0162 H       
  11 H11            2.1036     0.2135     1.7129 H       
  12 H12            3.3119    -0.4265     0.5682 H       
  13 H13            3.1406     2.0836     0.5018 H       
  14 H14            2.7477     1.3227    -1.0599 H       
  15 H15            1.0354     3.0428     0.0166 H       
  16 H16            0.3095    -2.6635     0.2282 H       
  17 H17            2.0277    -2.6295     0.6918 H       
  18 H18            0.8059    -1.8812     1.7480 H       
  19 H19            1.7894    -0.0719    -2.0028 H       
  20 H20            2.6019    -1.5731    -1.4982 H       
  21 H21            0.8851    -1.6046    -1.9669 H       
@<TRIPOS>BOND
   1    1    2 am
   2    1    6 am
   3    1    7 2
   4    2    3 1
   5    2   10 1
   6    3    4 1
   7    3    8 1
   8    3    9 1
   9    4    5 1
  10    4   11 1
  11    4   12 1
  12    5    6 1
  13    5   13 1
  14    5   14 1
  15    6   15 1
  16    8   16 1
  17    8   17 1
  18    8   18 1
  19    9   19 1
  20    9   20 1
  21    9   21 1

#	End of record

