#	Name: ASD01914709
#	Creating user name:	WinNT
#	Creation time:	15. 06. 2019 20:04

#	Modifying user name:	WinNT
#	Modification time:	15. 06. 2019 20:04

#	Program:	/corina/corina34_cracker 3.40 0067  02.08.2006

@<TRIPOS>MOLECULE
ASD01914709
  59   63    0    0    0
SMALL
NO_CHARGES


@<TRIPOS>ATOM
   1 C1            -0.0168     1.3889     0.0097 C.ar    
   2 C2             0.0021    -0.0041     0.0020 C.ar    
   3 C3             1.2225    -0.6606    -0.0132 C.ar    
   4 C4             2.3820     0.0991    -0.0202 C.ar    
   5 C5             2.2883     1.4815    -0.0119 C.ar    
   6 N6             1.1168     2.0790     0.0026 N.ar    
   7 C7            -1.3134     2.1059     0.0197 C.2     
   8 O8            -2.3544     1.4791     0.0212 O.2     
   9 N9            -1.3382     3.4534     0.0271 N.am    
  10 C10           -2.6202     4.1624     0.0371 C.3     
  11 C11           -2.3683     5.6715     0.0441 C.3     
  12 C12           -3.7072     6.4120     0.0544 C.3     
  13 C13           -4.4966     6.0209     1.3053 C.3     
  14 C14           -4.7485     4.5118     1.2983 C.3     
  15 C15           -5.5497     4.1342     0.0508 C.3     
  16 C16           -4.7603     4.5253    -1.2001 C.3     
  17 C17           -3.4214     3.7849    -1.2105 C.3     
  18 C18           -4.5085     6.0344    -1.1931 C.3     
  19 C19           -3.4096     3.7713     1.2879 C.3     
  20 N20           -3.4661     7.8570     0.0611 N.am    
  21 C21           -4.5064     8.7138     0.0707 C.2     
  22 O22           -5.6444     8.2877     0.0738 O.2     
  23 C23           -4.2625    10.1752     0.0775 C.ar    
  24 C24           -5.3421    11.0556     0.0874 C.ar    
  25 C25           -5.0981    12.4199     0.0941 C.ar    
  26 C26           -3.7824    12.8563     0.0907 C.ar    
  27 C27           -2.7575    11.9239     0.0808 C.ar    
  28 N28           -3.0174    10.6346     0.0797 N.ar    
  29 C29           -1.3256    12.3934     0.0771 C.3     
  30 O30           -1.2927    13.8220     0.0851 O.3     
  31 C31            3.5460     2.3117    -0.0195 C.3     
  32 H32           -0.9212    -0.5643     0.0082 H       
  33 H33            1.2691    -1.7396    -0.0191 H       
  34 H34            3.3489    -0.3819    -0.0317 H       
  35 H35           -0.5072     3.9538     0.0259 H       
  36 H36           -1.7975     5.9405     0.9328 H       
  37 H37           -1.8059     5.9502    -0.8471 H       
  38 H38           -3.9258     6.2898     2.1941 H       
  39 H39           -5.4505     6.5484     1.3127 H       
  40 H40           -5.3109     4.2331     2.1895 H       
  41 H41           -5.7292     3.0591     0.0458 H       
  42 H42           -6.5036     4.6617     0.0581 H       
  43 H43           -5.3311     4.2564    -2.0889 H       
  44 H44           -2.8590     4.0635    -2.1016 H       
  45 H45           -3.6009     2.7098    -1.2155 H       
  46 H46           -5.4623     6.5620    -1.1857 H       
  47 H47           -3.9460     6.3131    -2.0842 H       
  48 H48           -3.5890     2.6962     1.2830 H       
  49 H49           -2.8388     4.0403     2.1767 H       
  50 H50           -2.5576     8.1971     0.0587 H       
  51 H51           -6.3548    10.6804     0.0894 H       
  52 H52           -5.9145    13.1269     0.1015 H       
  53 H53           -3.5583    13.9128     0.0954 H       
  54 H54           -0.8162    12.0133     0.9626 H       
  55 H55           -0.8242    12.0235    -0.8173 H       
  56 H56           -0.4005    14.1950     0.0832 H       
  57 H57            3.8394     2.5173    -1.0490 H       
  58 H58            3.3639     3.2518     0.5011 H       
  59 H59            4.3444     1.7663     0.4838 H       
@<TRIPOS>BOND
   1    1    2 ar
   2    1    6 ar
   3    1    7 1
   4    2    3 ar
   5    2   32 1
   6    3    4 ar
   7    3   33 1
   8    4    5 ar
   9    4   34 1
  10    5    6 ar
  11    5   31 1
  12    7    8 2
  13    7    9 am
  14    9   10 1
  15    9   35 1
  16   10   11 1
  17   10   17 1
  18   10   19 1
  19   11   12 1
  20   11   36 1
  21   11   37 1
  22   12   13 1
  23   12   18 1
  24   12   20 1
  25   13   14 1
  26   13   38 1
  27   13   39 1
  28   14   15 1
  29   14   19 1
  30   14   40 1
  31   15   16 1
  32   15   41 1
  33   15   42 1
  34   16   17 1
  35   16   18 1
  36   16   43 1
  37   17   44 1
  38   17   45 1
  39   18   46 1
  40   18   47 1
  41   19   48 1
  42   19   49 1
  43   20   21 am
  44   20   50 1
  45   21   22 2
  46   21   23 1
  47   23   24 ar
  48   23   28 ar
  49   24   25 ar
  50   24   51 1
  51   25   26 ar
  52   25   52 1
  53   26   27 ar
  54   26   53 1
  55   27   28 ar
  56   27   29 1
  57   29   30 1
  58   29   54 1
  59   29   55 1
  60   30   56 1
  61   31   57 1
  62   31   58 1
  63   31   59 1

#	End of record

