#	Name: ASD01150800
#	Creating user name:	WinNT
#	Creation time:	15. 06. 2019 19:05

#	Modifying user name:	WinNT
#	Modification time:	15. 06. 2019 19:05

#	Program:	/corina/corina34_cracker 3.40 0067  02.08.2006

@<TRIPOS>MOLECULE
ASD01150800
  50   52    0    0    0
SMALL
NO_CHARGES


@<TRIPOS>ATOM
   1 N1            -0.0167     1.3798     0.0096 N.pl3   
   2 C2             0.0021    -0.0041     0.0020 C.ar    
   3 N3             1.1672    -0.6351    -0.0125 N.ar    
   4 C4             1.2202    -1.9566    -0.0201 C.ar    
   5 C5             0.0383    -2.6809    -0.0127 C.ar    
   6 C6            -1.1625    -1.9892     0.0025 C.ar    
   7 N7            -1.1452    -0.6664     0.0148 N.ar    
   8 C8            -2.4721    -2.7348     0.0109 C.3     
   9 N9            -2.9442    -2.8797     1.3944 N.3     
  10 C10           -4.3234    -3.3874     1.4300 C.3     
  11 C11           -4.7533    -3.5795     2.8868 C.3     
  12 O12           -4.6143    -2.3402     3.5870 O.3     
  13 C13           -3.2833    -1.8171     3.5729 C.3     
  14 C14           -2.8385    -1.6072     2.1231 C.3     
  15 C15            2.5495    -2.6664    -0.0371 C.3     
  16 C16            1.2419     2.1295     0.0016 C.3     
  17 C17            0.9465     3.6073     0.0124 C.ar    
  18 C18            0.8224     4.2786     1.2144 C.ar    
  19 C19            0.5514     5.6341     1.2243 C.ar    
  20 C20            0.4049     6.3183     0.0321 C.ar    
  21 C21            0.5298     5.6472    -1.1699 C.ar    
  22 C22            0.8052     4.2925    -1.1798 C.ar    
  23 C23            0.3696     6.3930    -2.4695 C.3     
  24 F24            0.1014     7.7402    -2.2041 F       
  25 F25            1.5493     6.2904    -3.2146 F       
  26 F26           -0.6905     5.8409    -3.1965 F       
  27 C27            0.4152     6.3657     2.5347 C.3     
  28 F28            1.6663     6.8508     2.9302 F       
  29 F29           -0.4727     7.4359     2.3811 F       
  30 F30           -0.0747     5.4896     3.5092 F       
  31 H31           -0.8632     1.8534     0.0162 H       
  32 H32            0.0529    -3.7608    -0.0190 H       
  33 H33           -3.2099    -2.1799    -0.5685 H       
  34 H34           -2.3312    -3.7216    -0.4301 H       
  35 H35           -4.9875    -2.6713     0.9460 H       
  36 H36           -4.3733    -4.3424     0.9069 H       
  37 H37           -5.7942    -3.9014     2.9197 H       
  38 H38           -4.1230    -4.3351     3.3557 H       
  39 H39           -3.2611    -0.8644     4.1020 H       
  40 H40           -2.6103    -2.5215     4.0618 H       
  41 H41           -1.8046    -1.2626     2.1059 H       
  42 H42           -3.4789    -0.8627     1.6501 H       
  43 H43            2.8802    -2.8430     0.9864 H       
  44 H44            2.4457    -3.6198    -0.5550 H       
  45 H45            3.2841    -2.0497    -0.5550 H       
  46 H46            1.8255     1.8692     0.8847 H       
  47 H47            1.8085     1.8788    -0.8952 H       
  48 H48            0.9369     3.7440     2.1458 H       
  49 H49            0.1924     7.3772     0.0398 H       
  50 H50            0.9065     3.7689    -2.1189 H       
@<TRIPOS>BOND
   1    1    2 1
   2    1   16 1
   3    1   31 1
   4    2    3 ar
   5    2    7 ar
   6    3    4 ar
   7    4    5 ar
   8    4   15 1
   9    5    6 ar
  10    5   32 1
  11    6    7 ar
  12    6    8 1
  13    8    9 1
  14    8   33 1
  15    8   34 1
  16    9   10 1
  17    9   14 1
  18   10   11 1
  19   10   35 1
  20   10   36 1
  21   11   12 1
  22   11   37 1
  23   11   38 1
  24   12   13 1
  25   13   14 1
  26   13   39 1
  27   13   40 1
  28   14   41 1
  29   14   42 1
  30   15   43 1
  31   15   44 1
  32   15   45 1
  33   16   17 1
  34   16   46 1
  35   16   47 1
  36   17   18 ar
  37   17   22 ar
  38   18   19 ar
  39   18   48 1
  40   19   20 ar
  41   19   27 1
  42   20   21 ar
  43   20   49 1
  44   21   22 ar
  45   21   23 1
  46   22   50 1
  47   23   24 1
  48   23   25 1
  49   23   26 1
  50   27   28 1
  51   27   29 1
  52   27   30 1

#	End of record

