#	Name: ASD01911510
#	Creating user name:	WinNT
#	Creation time:	15. 06. 2019 19:57

#	Modifying user name:	WinNT
#	Modification time:	15. 06. 2019 19:57

#	Program:	/corina/corina34_cracker 3.40 0067  02.08.2006

@<TRIPOS>MOLECULE
ASD01911510
  33   33    0    0    0
SMALL
NO_CHARGES


@<TRIPOS>ATOM
   1 C1            -0.1277     1.4440     0.4438 C.2     
   2 C2            -0.0579    -0.0138     0.0684 C.3     
   3 C3            -0.6315    -0.2067    -1.3368 C.3     
   4 C4            -2.1154     0.1662    -1.3376 C.3     
   5 O5             0.8856     2.1088     0.4846 O.2     
   6 N6            -1.3171     2.0103     0.7287 N.am    
   7 C7             0.1203     0.6905    -2.3221 C.3     
   8 C8            -0.4730    -1.6696    -1.7560 C.3     
   9 O9             1.3037    -0.4468     0.0907 O.3     
  10 C10            1.4825    -1.7778     0.5792 C.3     
  11 C11           -1.3715     3.3252     1.1747 C.ar    
  12 N12           -2.5484     3.8657     1.4500 N.ar    
  13 C13           -2.6360     5.1146     1.8770 C.ar    
  14 C14           -1.4762     5.8579     2.0348 C.ar    
  15 C15           -0.2609     5.2602     1.7372 C.ar    
  16 N16           -0.2447     4.0053     1.3193 N.ar    
  17 I17           -1.5581     7.8404     2.7073 I       
  18 I18           -2.9617    -0.2490    -3.2833 I       
  19 H19           -0.6375    -0.6007     0.7811 H       
  20 H20           -2.6377    -0.4201    -0.5816 H       
  21 H21           -2.2235     1.2274    -1.1133 H       
  22 H22           -2.1351     1.5000     0.6225 H       
  23 H23            1.1897     0.4917    -2.2513 H       
  24 H24           -0.2215     0.4830    -3.3361 H       
  25 H25           -0.0716     1.7360    -2.0807 H       
  26 H26           -1.0178    -2.3079    -1.0605 H       
  27 H27           -0.8716    -1.8046    -2.7615 H       
  28 H28            0.5833    -1.9384    -1.7448 H       
  29 H29            1.0352    -1.8645     1.5694 H       
  30 H30            1.0013    -2.4817    -0.0998 H       
  31 H31            2.5474    -2.0023     0.6406 H       
  32 H32           -3.5990     5.5500     2.0995 H       
  33 H33            0.6613     5.8112     1.8489 H       
@<TRIPOS>BOND
   1    1    2 1
   2    1    5 2
   3    1    6 am
   4    2    3 1
   5    2    9 1
   6    2   19 1
   7    3    4 1
   8    3    7 1
   9    3    8 1
  10    4   18 1
  11    4   20 1
  12    4   21 1
  13    6   11 1
  14    6   22 1
  15    7   23 1
  16    7   24 1
  17    7   25 1
  18    8   26 1
  19    8   27 1
  20    8   28 1
  21    9   10 1
  22   10   29 1
  23   10   30 1
  24   10   31 1
  25   11   12 ar
  26   11   16 ar
  27   12   13 ar
  28   13   14 ar
  29   13   32 1
  30   14   15 ar
  31   14   17 1
  32   15   16 ar
  33   15   33 1

#	End of record

