#	Name: ASD03240058
#	Creating user name:	WinNT
#	Creation time:	15. 06. 2019 20:34

#	Modifying user name:	WinNT
#	Modification time:	15. 06. 2019 20:34

#	Program:	/corina/corina34_cracker 3.40 0067  02.08.2006

@<TRIPOS>MOLECULE
ASD03240058
  71   77    0    0    0
SMALL
NO_CHARGES


@<TRIPOS>ATOM
   1 C1            -0.0059     1.4946     0.4835 C.ar    
   2 C2             0.0712     0.1008     0.5153 C.ar    
   3 C3             1.1533     2.2473     0.6938 C.ar    
   4 C4             2.3472     1.5688     0.9283 C.ar    
   5 C5             2.3396     0.1638     0.9443 C.ar    
   6 N6             1.2149    -0.5090     0.7399 N.ar    
   7 C7             3.6000    -0.5733     1.1922 C.ar    
   8 C8             3.6062     2.3176     1.1571 C.ar    
   9 C9             3.9891     3.3282     0.2767 C.ar    
  10 C10            5.1621     4.0218     0.4947 C.ar    
  11 C11            5.9574     3.7157     1.5843 C.ar    
  12 C12            5.5828     2.7135     2.4611 C.ar    
  13 C13            4.4088     2.0175     2.2567 C.ar    
  14 C14            3.5820    -1.7703     1.9078 C.ar    
  15 C15            4.7596    -2.4524     2.1356 C.ar    
  16 C16            5.9566    -1.9510     1.6561 C.ar    
  17 C17            5.9810    -0.7639     0.9460 C.ar    
  18 C18            4.8091    -0.0761     0.7060 C.ar    
  19 C19            7.2392    -2.7007     1.9088 C.3     
  20 N20            7.4776    -3.6471     0.8109 N.3     
  21 C21            8.8255    -4.2236     0.8964 C.3     
  22 C22            9.0909    -5.0890    -0.3376 C.3     
  23 C23            8.0427    -6.2029    -0.4087 C.3     
  24 C24            6.6459    -5.5768    -0.4481 C.3     
  25 C25            6.4514    -4.6973     0.7891 C.3     
  26 C26           -1.2980     2.1670     0.2241 C.2     
  27 N27            8.2564    -6.9996    -1.6195 N.am    
  28 C28            8.5336    -8.3640    -1.6590 C.ar    
  29 C29            8.6624    -8.7108    -3.0054 C.ar    
  30 N30            8.4595    -7.5463    -3.7422 N.am    
  31 C31            8.2126    -6.5388    -2.8838 C.2     
  32 C32            8.6861    -9.3329    -0.6788 C.ar    
  33 C33            8.9646   -10.6368    -1.0386 C.ar    
  34 C34            9.0923   -10.9806    -2.3735 C.ar    
  35 C35            8.9422   -10.0226    -3.3569 C.ar    
  36 O36            7.9919    -5.3852    -3.2020 O.2     
  37 N37           -2.4950     1.6278     0.3239 N.2     
  38 N38           -3.4016     2.4880     0.0288 N.2     
  39 N39           -2.8651     3.6196    -0.2760 N.2     
  40 N40           -1.4738     3.4571    -0.1556 N.pl3   
  41 C41           -0.4363     4.4628    -0.3973 C.3     
  42 H42           -0.8214    -0.4852     0.3534 H       
  43 H43            1.1241     3.3267     0.6745 H       
  44 H44            3.3691     3.5678    -0.5746 H       
  45 H45            5.4599     4.8047    -0.1870 H       
  46 H46            6.8746     4.2611     1.7509 H       
  47 H47            6.2080     2.4784     3.3098 H       
  48 H48            4.1173     1.2352     2.9418 H       
  49 H49            2.6483    -2.1623     2.2832 H       
  50 H50            4.7470    -3.3794     2.6895 H       
  51 H51            6.9185    -0.3774     0.5745 H       
  52 H52            4.8293     0.8503     0.1512 H       
  53 H53            8.0675    -1.9946     1.9662 H       
  54 H54            7.1616    -3.2469     2.8489 H       
  55 H55            9.5616    -3.4209     0.9422 H       
  56 H56            8.9017    -4.8376     1.7938 H       
  57 H57            9.0285    -4.4727    -1.2345 H       
  58 H58           10.0855    -5.5292    -0.2662 H       
  59 H59            8.1306    -6.8424     0.4695 H       
  60 H60            6.5451    -4.9683    -1.3467 H       
  61 H61            5.8937    -6.3656    -0.4557 H       
  62 H62            6.5387    -5.3090     1.6870 H       
  63 H63            5.4631    -4.2387     0.7569 H       
  64 H64            8.4874    -7.4742    -4.7091 H       
  65 H65            8.5875    -9.0683     0.3636 H       
  66 H66            9.0837   -11.3915    -0.2752 H       
  67 H67            9.3103   -12.0024    -2.6471 H       
  68 H68            9.0422   -10.2946    -4.3973 H       
  69 H69           -0.1530     4.9268     0.5475 H       
  70 H70            0.4360     3.9850    -0.8434 H       
  71 H71           -0.8199     5.2248    -1.0757 H       
@<TRIPOS>BOND
   1    1    2 ar
   2    1    3 ar
   3    1   26 1
   4    2    6 ar
   5    2   42 1
   6    3    4 ar
   7    3   43 1
   8    4    5 ar
   9    4    8 1
  10    5    6 ar
  11    5    7 1
  12    7   14 ar
  13    7   18 ar
  14    8    9 ar
  15    8   13 ar
  16    9   10 ar
  17    9   44 1
  18   10   11 ar
  19   10   45 1
  20   11   12 ar
  21   11   46 1
  22   12   13 ar
  23   12   47 1
  24   13   48 1
  25   14   15 ar
  26   14   49 1
  27   15   16 ar
  28   15   50 1
  29   16   17 ar
  30   16   19 1
  31   17   18 ar
  32   17   51 1
  33   18   52 1
  34   19   20 1
  35   19   53 1
  36   19   54 1
  37   20   21 1
  38   20   25 1
  39   21   22 1
  40   21   55 1
  41   21   56 1
  42   22   23 1
  43   22   57 1
  44   22   58 1
  45   23   24 1
  46   23   27 1
  47   23   59 1
  48   24   25 1
  49   24   60 1
  50   24   61 1
  51   25   62 1
  52   25   63 1
  53   26   37 2
  54   26   40 1
  55   27   28 1
  56   27   31 am
  57   28   29 ar
  58   28   32 ar
  59   29   30 1
  60   29   35 ar
  61   30   31 am
  62   30   64 1
  63   31   36 2
  64   32   33 ar
  65   32   65 1
  66   33   34 ar
  67   33   66 1
  68   34   35 ar
  69   34   67 1
  70   35   68 1
  71   37   38 1
  72   38   39 2
  73   39   40 1
  74   40   41 1
  75   41   69 1
  76   41   70 1
  77   41   71 1

#	End of record

