#	Name: ASD00238005
#	Creating user name:	WinNT
#	Creation time:	15. 06. 2019 18:33

#	Modifying user name:	WinNT
#	Modification time:	15. 06. 2019 18:33

#	Program:	/corina/corina34_cracker 3.40 0067  02.08.2006

@<TRIPOS>MOLECULE
ASD00238005
  32   32    0    0    0
SMALL
NO_CHARGES


@<TRIPOS>ATOM
   1 N1            -0.0169     1.3938     0.0097 N.4     
   2 C2             0.0021    -0.0041     0.0020 C.ar    
   3 C3             0.6199    -0.6927     1.0294 C.ar    
   4 C4             0.6387    -2.0747     1.0218 C.ar    
   5 C5             0.0392    -2.7685    -0.0130 C.ar    
   6 C6            -0.5792    -2.0801    -1.0396 C.ar    
   7 C7            -0.6018    -0.6977    -1.0298 C.ar    
   8 C8             1.3130    -2.8253     2.1411 C.3     
   9 C9             0.2996    -3.1002     3.2539 C.3     
  10 O10            1.8229    -4.0643     1.6444 O.3     
  11 O11            2.3891    -2.0411     2.6600 O.3     
  12 F12           -0.7539    -3.8679     2.7460 F       
  13 F13            0.9256    -3.7970     4.2930 F       
  14 F14           -0.1995    -1.8871     3.7402 F       
  15 C15            1.3613     1.9022    -0.0007 C.3     
  16 C16           -0.7274     1.8804    -1.1804 C.3     
  17 C17           -0.7045     1.8675     1.2183 C.3     
  18 H18            1.0882    -0.1507     1.8377 H       
  19 H19            0.0545    -3.8483    -0.0193 H       
  20 H20           -1.0472    -2.6220    -1.8481 H       
  21 H21           -1.0883    -0.1599    -1.8300 H       
  22 H22            1.1462    -4.6487     1.2760 H       
  23 H23            2.1158    -1.1842     3.0151 H       
  24 H24            1.8715     1.5507    -0.8975 H       
  25 H25            1.3465     2.9921     0.0053 H       
  26 H26            1.8885     1.5412     0.8823 H       
  27 H27           -1.7500     1.5031    -1.1727 H       
  28 H28           -0.7422     2.9703    -1.1744 H       
  29 H29           -0.2172     1.5289    -2.0772 H       
  30 H30           -0.1773     1.5064     2.1014 H       
  31 H31           -0.7193     2.9574     1.2243 H       
  32 H32           -1.7271     1.4902     1.2261 H       
@<TRIPOS>BOND
   1    1    2 1
   2    1   15 1
   3    1   16 1
   4    1   17 1
   5    2    3 ar
   6    2    7 ar
   7    3    4 ar
   8    3   18 1
   9    4    5 ar
  10    4    8 1
  11    5    6 ar
  12    5   19 1
  13    6    7 ar
  14    6   20 1
  15    7   21 1
  16    8    9 1
  17    8   10 1
  18    8   11 1
  19    9   12 1
  20    9   13 1
  21    9   14 1
  22   10   22 1
  23   11   23 1
  24   15   24 1
  25   15   25 1
  26   15   26 1
  27   16   27 1
  28   16   28 1
  29   16   29 1
  30   17   30 1
  31   17   31 1
  32   17   32 1

#	End of record

