#	Name: ASD01152486
#	Creating user name:	WinNT
#	Creation time:	15. 06. 2019 19:05

#	Modifying user name:	WinNT
#	Modification time:	15. 06. 2019 19:05

#	Program:	/corina/corina34_cracker 3.40 0067  02.08.2006

@<TRIPOS>MOLECULE
ASD01152486
  50   52    0    0    0
SMALL
NO_CHARGES


@<TRIPOS>ATOM
   1 C1             0.1112     1.1571    -0.6957 C.2     
   2 N2             0.0188    -0.1436    -0.6173 N.2     
   3 N3            -1.1206    -0.7661    -0.1079 N.am    
   4 C4            -2.2616    -0.0993     0.1331 C.2     
   5 C5            -2.3925     1.3536    -0.2590 C.3     
   6 C6            -1.0086     1.9736    -0.2033 C.2     
   7 C7            -2.9558     1.4586    -1.6777 C.3     
   8 O8            -0.8360     3.0970     0.2227 O.2     
   9 C9            -1.0735    -2.1389     0.1624 C.ar    
  10 O10           -3.1908    -0.6664     0.6673 O.2     
  11 C11           -3.1986     2.9070    -2.0158 C.ar    
  12 C12           -0.0102    -2.6693     0.8797 C.ar    
  13 C13           -2.0939    -2.9703    -0.2824 C.ar    
  14 C14           -2.0490    -4.3252    -0.0160 C.ar    
  15 C15           -0.9884    -4.8582     0.6946 C.ar    
  16 C16            0.0334    -4.0297     1.1463 C.ar    
  17 C17           -2.1981     3.6548    -2.6057 C.ar    
  18 C18           -4.4243     3.4841    -1.7405 C.ar    
  19 C19           -4.6506     4.8146    -2.0509 C.ar    
  20 C20           -3.6492     5.5683    -2.6375 C.ar    
  21 C21           -2.4211     4.9884    -2.9177 C.ar    
  22 F22           -0.9477    -6.1834     0.9543 F       
  23 F23           -5.8492     5.3766    -1.7815 F       
  24 O24            1.2211     1.7436    -1.2161 O.3     
  25 C25            2.2636     0.8755    -1.6652 C.3     
  26 O26           -1.4359     5.7263    -3.4937 O.3     
  27 C27           -1.7343     7.0934    -3.7836 C.3     
  28 N28            1.1045    -4.5683     1.8702 N.am    
  29 C29            1.7680    -3.8044     2.7605 C.2     
  30 O30            1.4983    -2.6269     2.8693 O.2     
  31 C31            2.8451    -4.4133     3.6209 C.3     
  32 H32           -3.0531     1.8665     0.4400 H       
  33 H33           -2.2419     1.0353    -2.3843 H       
  34 H34           -3.8953     0.9092    -1.7372 H       
  35 H35            0.7820    -2.0238     1.2294 H       
  36 H36           -2.9234    -2.5568    -0.8367 H       
  37 H37           -2.8435    -4.9693    -0.3628 H       
  38 H38           -1.2423     3.2016    -2.8236 H       
  39 H39           -5.2066     2.8965    -1.2830 H       
  40 H40           -3.8252     6.6057    -2.8805 H       
  41 H41            3.0887     1.4706    -2.0565 H       
  42 H42            2.6165     0.2695    -0.8307 H       
  43 H43            1.8808     0.2241    -2.4508 H       
  44 H44           -2.5780     7.1430    -4.4720 H       
  45 H45           -1.9880     7.6136    -2.8599 H       
  46 H46           -0.8647     7.5663    -4.2399 H       
  47 H47            1.3688    -5.4911     1.7308 H       
  48 H48            3.6315    -4.8199     2.9850 H       
  49 H49            3.2649    -3.6478     4.2734 H       
  50 H50            2.4178    -5.2126     4.2264 H       
@<TRIPOS>BOND
   1    1    2 2
   2    1   24 1
   3    1    6 1
   4    2    3 1
   5    3    4 am
   6    3    9 1
   7    4    5 1
   8    4   10 2
   9    5    6 1
  10    5    7 1
  11    5   32 1
  12    6    8 2
  13    7   11 1
  14    7   33 1
  15    7   34 1
  16    9   12 ar
  17    9   13 ar
  18   11   17 ar
  19   11   18 ar
  20   12   16 ar
  21   12   35 1
  22   13   14 ar
  23   13   36 1
  24   14   15 ar
  25   14   37 1
  26   15   16 ar
  27   15   22 1
  28   16   28 1
  29   17   21 ar
  30   17   38 1
  31   18   19 ar
  32   18   39 1
  33   19   20 ar
  34   19   23 1
  35   20   21 ar
  36   20   40 1
  37   21   26 1
  38   24   25 1
  39   25   41 1
  40   25   42 1
  41   25   43 1
  42   26   27 1
  43   27   44 1
  44   27   45 1
  45   27   46 1
  46   28   29 am
  47   28   47 1
  48   29   30 2
  49   29   31 1
  50   31   48 1
  51   31   49 1
  52   31   50 1

#	End of record

