#	Name: ASD02448020
#	Creating user name:	WinNT
#	Creation time:	15. 06. 2019 20:21

#	Modifying user name:	WinNT
#	Modification time:	15. 06. 2019 20:21

#	Program:	/corina/corina34_cracker 3.40 0067  02.08.2006

@<TRIPOS>MOLECULE
ASD02448020
  78   84    0    0    0
SMALL
NO_CHARGES


@<TRIPOS>ATOM
   1 C1             3.3171    -7.4095    -1.0944 C.ar    
   2 C2             2.8025    -6.2970    -0.4595 C.ar    
   3 C3             2.1987    -5.2911    -1.2017 C.ar    
   4 C4             2.1125    -5.4033    -2.5828 C.ar    
   5 C5             2.6272    -6.5153    -3.2186 C.ar    
   6 C6             3.2311    -7.5222    -2.4762 C.ar    
   7 N7             3.7529    -8.6484    -3.1198 N.am    
   8 C8             4.8227    -9.5399    -2.6531 C.3     
   9 C9             5.0868   -10.6336    -3.6371 C.2     
  10 N10            4.3182   -10.5990    -4.7348 N.am    
  11 S11            3.2981    -9.2915    -4.5905 S.o2    
  12 O12            5.9308   -11.4856    -3.4566 O.2     
  13 O13            1.9802    -9.8022    -4.4434 O.2     
  14 O14            3.6778    -8.3516    -5.5863 O.2     
  15 N15            1.6748    -4.1606    -0.5556 N.pl3   
  16 C16            0.7435    -4.1579     0.4480 C.2     
  17 C17            2.0020    -2.8660    -0.8059 C.2     
  18 N18            1.3134    -2.0956    -0.0104 N.2     
  19 C19            0.5270    -2.8574     0.7764 C.2     
  20 C20           -0.4091    -2.3633     1.8161 C.ar    
  21 C21           -0.5340    -0.9940     2.0513 C.ar    
  22 C22           -1.1704    -3.2650     2.5564 C.ar    
  23 C23           -2.0400    -2.8011     3.5226 C.ar    
  24 C24           -2.1573    -1.4409     3.7569 C.ar    
  25 C25           -1.4065    -0.5393     3.0200 C.ar    
  26 C26            2.9983    -2.3968    -1.8347 C.3     
  27 C27            4.3370    -2.1829    -1.1765 C.ar    
  28 C28            5.2085    -3.2464    -1.0258 C.ar    
  29 C29            4.6920    -0.9227    -0.7303 C.ar    
  30 C30            5.9169    -0.7210    -0.1272 C.ar    
  31 C31            6.7966    -1.7898     0.0319 C.ar    
  32 C32            6.4360    -3.0561    -0.4241 C.ar    
  33 C33            8.1152    -1.5789     0.6791 C.ar    
  34 C34            8.9949    -2.6477     0.8382 C.ar    
  35 C35            8.4805    -0.3103     1.1248 C.ar    
  36 C36            9.7081    -0.1199     1.7261 C.ar    
  37 C37           10.5753    -1.1855     1.8862 C.ar    
  38 C38           10.2200    -2.4460     1.4409 C.ar    
  39 C39           11.9148    -0.9712     2.5427 C.3     
  40 C40           12.0141    -1.8436     3.7956 C.3     
  41 C41           13.3741    -1.6260     4.4621 C.3     
  42 C42           14.4878    -2.0080     3.4850 C.3     
  43 C43           14.3884    -1.1356     2.2321 C.3     
  44 C44           13.0285    -1.3532     1.5656 C.3     
  45 Cl45           0.4064     0.1362     1.1282 Cl      
  46 F46           -3.0105    -0.9917     4.7031 F       
  47 H47            3.7905    -8.1900    -0.5173 H       
  48 H48            2.8694    -6.2093     0.6149 H       
  49 H49            1.6423    -4.6208    -3.1598 H       
  50 H50            2.5601    -6.6025    -4.2929 H       
  51 H51            5.7344    -8.9597    -2.5111 H       
  52 H52            4.5299    -9.9802    -1.6999 H       
  53 H53            4.3488   -11.2236    -5.4763 H       
  54 H54            0.2722    -5.0221     0.8923 H       
  55 H55           -1.0805    -4.3258     2.3744 H       
  56 H56           -2.6303    -3.4998     4.0968 H       
  57 H57           -1.5009     0.5203     3.2062 H       
  58 H58            3.0943    -3.1495    -2.6172 H       
  59 H59            2.6547    -1.4595    -2.2723 H       
  60 H60            4.9279    -4.2276    -1.3793 H       
  61 H61            4.0095    -0.0949    -0.8545 H       
  62 H62            6.1932     0.2635     0.2204 H       
  63 H63            7.1139    -3.8881    -0.3030 H       
  64 H64            8.7184    -3.6323     0.4909 H       
  65 H65            7.8044     0.5225     0.9996 H       
  66 H66            9.9922     0.8630     2.0719 H       
  67 H67           10.9008    -3.2746     1.5688 H       
  68 H68           12.0194     0.0775     2.8209 H       
  69 H69           11.2207    -1.5714     4.4917 H       
  70 H70           11.9095    -2.8923     3.5174 H       
  71 H71           13.4787    -0.5773     4.7403 H       
  72 H72           13.4448    -2.2475     5.3547 H       
  73 H73           15.4566    -1.8530     3.9598 H       
  74 H74           14.3831    -3.0567     3.2068 H       
  75 H75           14.4931    -0.0869     2.5103 H       
  76 H76           15.1819    -1.4078     1.5360 H       
  77 H77           12.9239    -2.4019     1.2874 H       
  78 H78           12.9577    -0.7317     0.6730 H       
@<TRIPOS>BOND
   1    1    2 ar
   2    1    6 ar
   3    1   47 1
   4    2    3 ar
   5    2   48 1
   6    3    4 ar
   7    3   15 1
   8    4    5 ar
   9    4   49 1
  10    5    6 ar
  11    5   50 1
  12    6    7 1
  13    7    8 1
  14    7   11 am
  15    8    9 1
  16    8   51 1
  17    8   52 1
  18    9   10 am
  19    9   12 2
  20   10   11 am
  21   10   53 1
  22   11   13 2
  23   11   14 2
  24   15   16 1
  25   15   17 1
  26   16   19 2
  27   16   54 1
  28   17   18 2
  29   17   26 1
  30   18   19 1
  31   19   20 1
  32   20   21 ar
  33   20   22 ar
  34   21   45 1
  35   21   25 ar
  36   22   23 ar
  37   22   55 1
  38   23   24 ar
  39   23   56 1
  40   24   25 ar
  41   24   46 1
  42   25   57 1
  43   26   27 1
  44   26   58 1
  45   26   59 1
  46   27   28 ar
  47   27   29 ar
  48   28   32 ar
  49   28   60 1
  50   29   30 ar
  51   29   61 1
  52   30   31 ar
  53   30   62 1
  54   31   32 ar
  55   31   33 1
  56   32   63 1
  57   33   34 ar
  58   33   35 ar
  59   34   38 ar
  60   34   64 1
  61   35   36 ar
  62   35   65 1
  63   36   37 ar
  64   36   66 1
  65   37   38 ar
  66   37   39 1
  67   38   67 1
  68   39   40 1
  69   39   44 1
  70   39   68 1
  71   40   41 1
  72   40   69 1
  73   40   70 1
  74   41   42 1
  75   41   71 1
  76   41   72 1
  77   42   43 1
  78   42   73 1
  79   42   74 1
  80   43   44 1
  81   43   75 1
  82   43   76 1
  83   44   77 1
  84   44   78 1

#	End of record

