#	Name: ASD03180037
#	Creating user name:	WinNT
#	Creation time:	15. 06. 2019 20:33

#	Modifying user name:	WinNT
#	Modification time:	15. 06. 2019 20:33

#	Program:	/corina/corina34_cracker 3.40 0067  02.08.2006

@<TRIPOS>MOLECULE
ASD03180037
  32   34    0    0    0
SMALL
NO_CHARGES


@<TRIPOS>ATOM
   1 C1             0.3986     1.0205    -1.4890 C.ar    
   2 C2             0.0896    -0.0502    -0.6699 C.ar    
   3 C3             0.9376    -0.4010     0.3644 C.ar    
   4 C4             2.0975     0.3181     0.5830 C.ar    
   5 C5             2.4105     1.3947    -0.2387 C.ar    
   6 C6             1.5559     1.7436    -1.2765 C.ar    
   7 N7             3.5830     2.1248    -0.0209 N.pl3   
   8 C8             3.5666     3.5074    -0.1179 C.2     
   9 C9             4.4008     5.5866    -0.1629 C.2     
  10 N10            4.6097     4.2754    -0.0475 N.2     
  11 S11            2.1278     4.4921    -0.3634 S.3     
  12 C12            3.1173     5.9497    -0.3420 C.2     
  13 C13            5.5016     6.5725    -0.1006 C.2     
  14 S14            5.3382     8.3214    -0.2396 S.3     
  15 C15            7.0276     8.5042    -0.0530 C.2     
  16 N16            7.5910     7.3524     0.0922 N.2     
  17 C17            6.8105     6.2933     0.0787 C.2     
  18 C18            7.7557     9.8236    -0.0575 C.3     
  19 C19            7.3327     4.8895     0.2445 C.3     
  20 Cl20           3.1615    -0.1222     1.8820 Cl      
  21 H21           -0.2638     1.2887    -2.2987 H       
  22 H22           -0.8163    -0.6135    -0.8384 H       
  23 H23            0.6932    -1.2374     1.0024 H       
  24 H24            1.7963     2.5793    -1.9169 H       
  25 H25            4.4078     1.6637     0.1981 H       
  26 H26            2.7561     6.9612    -0.4551 H       
  27 H27            7.8113    10.2114     0.9596 H       
  28 H28            8.7635     9.6811    -0.4476 H       
  29 H29            7.2191    10.5327    -0.6879 H       
  30 H30            7.5822     4.4768    -0.7330 H       
  31 H31            8.2248     4.9053     0.8706 H       
  32 H32            6.5689     4.2710     0.7158 H       
@<TRIPOS>BOND
   1    1    2 ar
   2    1    6 ar
   3    1   21 1
   4    2    3 ar
   5    2   22 1
   6    3    4 ar
   7    3   23 1
   8    4    5 ar
   9    4   20 1
  10    5    6 ar
  11    5    7 1
  12    6   24 1
  13    7    8 1
  14    7   25 1
  15    8   11 1
  16    8   10 2
  17    9   10 1
  18    9   12 2
  19    9   13 1
  20   11   12 1
  21   12   26 1
  22   13   14 1
  23   13   17 2
  24   14   15 1
  25   15   16 2
  26   15   18 1
  27   16   17 1
  28   17   19 1
  29   18   27 1
  30   18   28 1
  31   18   29 1
  32   19   30 1
  33   19   31 1
  34   19   32 1

#	End of record

