#	Name: ASD05430706
#	Creating user name:	WinNT
#	Creation time:	15. 06. 2019 21:00

#	Modifying user name:	WinNT
#	Modification time:	15. 06. 2019 21:00

#	Program:	/corina/corina34_cracker 3.40 0067  02.08.2006

@<TRIPOS>MOLECULE
ASD05430706
  31   32    0    0    0
SMALL
NO_CHARGES


@<TRIPOS>ATOM
   1 C1            -0.0167     1.3824     0.0096 C.2     
   2 C2             0.0021    -0.0041     0.0020 C.2     
   3 C3            -1.2152    -0.7116     0.0098 C.2     
   4 N4            -2.3525    -0.0727     0.0240 N.2     
   5 N5            -2.3966     1.3252     0.0320 N.am    
   6 C6            -1.2582     2.0467     0.0310 C.2     
   7 C7            -5.2215     2.5777    -1.8501 C.ar    
   8 C8            -4.4788     1.6249    -1.1779 C.ar    
   9 C9            -3.6911     2.0109     0.0475 C.3     
  10 C10           -5.9445     2.2247    -2.9737 C.ar    
  11 C11           -5.9249     0.9163    -3.4262 C.ar    
  12 C12           -5.1807    -0.0371    -2.7522 C.ar    
  13 C13           -4.4584     0.3182    -1.6288 C.ar    
  14 F14           -6.6316     0.5701    -4.5243 F       
  15 C15           -4.4680     1.6055     1.3017 C.3     
  16 N16            1.2110    -0.6888    -0.0136 N.pl3   
  17 N17            1.1801     2.1105     0.0021 N.pl3   
  18 O18           -1.3031     3.2676     0.0379 O.2     
  19 H19           -1.2073    -1.7915     0.0036 H       
  20 H20           -5.2402     3.5972    -1.4944 H       
  21 H21           -3.5311     3.0891     0.0518 H       
  22 H22           -6.5249     2.9692    -3.4985 H       
  23 H23           -5.1643    -1.0579    -3.1044 H       
  24 H24           -3.8775    -0.4252    -1.1031 H       
  25 H25           -4.6280     0.5274     1.2973 H       
  26 H26           -3.8983     1.8847     2.1880 H       
  27 H27           -5.4311     2.1157     1.3132 H       
  28 H28            2.0470    -0.1969    -0.0192 H       
  29 H29            1.2189    -1.6588    -0.0189 H       
  30 H30            2.0310     1.6449    -0.0085 H       
  31 H31            1.1578     3.0802     0.0075 H       
@<TRIPOS>BOND
   1    1    2 2
   2    1   17 1
   3    1    6 1
   4    2    3 1
   5    2   16 1
   6    3    4 2
   7    3   19 1
   8    4    5 1
   9    5    6 am
  10    5    9 1
  11    6   18 2
  12    7    8 ar
  13    7   10 ar
  14    7   20 1
  15    8    9 1
  16    8   13 ar
  17    9   15 1
  18    9   21 1
  19   10   11 ar
  20   10   22 1
  21   11   12 ar
  22   11   14 1
  23   12   13 ar
  24   12   23 1
  25   13   24 1
  26   15   25 1
  27   15   26 1
  28   15   27 1
  29   16   28 1
  30   16   29 1
  31   17   30 1
  32   17   31 1

#	End of record

