#	Name: ASD01882773
#	Creating user name:	WinNT
#	Creation time:	15. 06. 2019 19:45

#	Modifying user name:	WinNT
#	Modification time:	15. 06. 2019 19:45

#	Program:	/corina/corina34_cracker 3.40 0067  02.08.2006

@<TRIPOS>MOLECULE
ASD01882773
  54   56    0    0    0
SMALL
NO_CHARGES


@<TRIPOS>ATOM
   1 C1            -0.9219    -0.1560    -1.0414 C.2     
   2 C2             0.0021    -0.0041     0.0020 C.2     
   3 C3            -0.3131     0.8591     1.0641 C.2     
   4 C4            -1.4899     1.5252     1.0682 C.2     
   5 N5            -2.3868     1.3797     0.0595 N.am    
   6 C6            -2.1357     0.5711    -0.9870 C.2     
   7 C7            -0.6410    -1.0255    -2.1440 C.1     
   8 C8            -3.6490     2.1217     0.1076 C.3     
   9 C9            -3.4714     3.4757    -0.5824 C.3     
  10 O10           -2.9568     0.4566    -1.8812 O.2     
  11 N11           -0.4181    -1.7152    -3.0187 N.1     
  12 O12            1.1751    -0.6767    -0.0137 O.3     
  13 C13           -4.7896     4.2506    -0.5321 C.3     
  14 C14           -5.1328     4.5794     0.9222 C.3     
  15 C15           -4.6486     5.5491    -1.3289 C.3     
  16 C16            2.3676     0.1016    -0.1328 C.3     
  17 C17            3.5660    -0.8122    -0.1329 C.ar    
  18 C18            4.0495    -1.3143    -1.3276 C.ar    
  19 C19            5.1469    -2.1513    -1.3337 C.ar    
  20 C20            5.7680    -2.4903    -0.1331 C.ar    
  21 C21            5.2765    -1.9815     1.0676 C.ar    
  22 C22            4.1817    -1.1412     1.0613 C.ar    
  23 C23            6.9476    -3.3898    -0.1332 C.ar    
  24 C24            7.5620    -3.7233     1.0717 C.ar    
  25 C25            8.6616    -4.5642     1.0558 C.ar    
  26 C26            9.1107    -5.0442    -0.1660 C.ar    
  27 C27            8.4527    -4.6722    -1.3240 C.ar    
  28 N28            7.4053    -3.8745    -1.2803 N.ar    
  29 C29            8.9372    -5.1907    -2.6535 C.3     
  30 H30            0.3845     0.9907     1.8780 H       
  31 H31           -1.7212     2.1859     1.8906 H       
  32 H32           -4.4250     1.5522    -0.4040 H       
  33 H33           -3.9389     2.2786     1.1466 H       
  34 H34           -2.6954     4.0451    -0.0708 H       
  35 H35           -3.1815     3.3187    -1.6214 H       
  36 H36           -5.5848     3.6434    -0.9647 H       
  37 H37           -6.0720     5.1314     0.9580 H       
  38 H38           -5.2333     3.6543     1.4899 H       
  39 H39           -4.3377     5.1866     1.3548 H       
  40 H40           -4.4041     5.3149    -2.3650 H       
  41 H41           -5.5878     6.1011    -1.2931 H       
  42 H42           -3.8535     6.1563    -0.8963 H       
  43 H43            2.3413     0.6664    -1.0647 H       
  44 H44            2.4368     0.7915     0.7083 H       
  45 H45            3.5672    -1.0512    -2.2575 H       
  46 H46            5.5234    -2.5430    -2.2671 H       
  47 H47            5.7540    -2.2410     2.0009 H       
  48 H48            3.7999    -0.7463     1.9912 H       
  49 H49            7.1860    -3.3311     2.0050 H       
  50 H50            9.1589    -4.8401     1.9740 H       
  51 H51            9.9662    -5.7018    -0.2122 H       
  52 H52            8.4333    -6.1296    -2.8828 H       
  53 H53            8.7153    -4.4599    -3.4312 H       
  54 H54           10.0134    -5.3576    -2.6081 H       
@<TRIPOS>BOND
   1    1    2 2
   2    1    7 1
   3    1    6 1
   4    2    3 1
   5    2   12 1
   6    3    4 2
   7    3   30 1
   8    4    5 1
   9    4   31 1
  10    5    6 am
  11    5    8 1
  12    6   10 2
  13    7   11 3
  14    8    9 1
  15    8   32 1
  16    8   33 1
  17    9   13 1
  18    9   34 1
  19    9   35 1
  20   12   16 1
  21   13   14 1
  22   13   15 1
  23   13   36 1
  24   14   37 1
  25   14   38 1
  26   14   39 1
  27   15   40 1
  28   15   41 1
  29   15   42 1
  30   16   17 1
  31   16   43 1
  32   16   44 1
  33   17   18 ar
  34   17   22 ar
  35   18   19 ar
  36   18   45 1
  37   19   20 ar
  38   19   46 1
  39   20   21 ar
  40   20   23 1
  41   21   22 ar
  42   21   47 1
  43   22   48 1
  44   23   24 ar
  45   23   28 ar
  46   24   25 ar
  47   24   49 1
  48   25   26 ar
  49   25   50 1
  50   26   27 ar
  51   26   51 1
  52   27   28 ar
  53   27   29 1
  54   29   52 1
  55   29   53 1
  56   29   54 1

#	End of record

