#	Name: ASD05313129
#	Creating user name:	WinNT
#	Creation time:	15. 06. 2019 20:58

#	Modifying user name:	WinNT
#	Modification time:	15. 06. 2019 20:58

#	Program:	/corina/corina34_cracker 3.40 0067  02.08.2006

@<TRIPOS>MOLECULE
ASD05313129
  39   42    0    0    0
SMALL
NO_CHARGES


@<TRIPOS>ATOM
   1 C1            -0.2531     0.9612     1.1343 C.2     
   2 C2            -0.0248    -0.5040     0.8495 C.3     
   3 N3             0.7482     1.8855     1.1860 N.pl3   
   4 N4             1.3729    -0.6409     0.3976 N.am    
   5 C5             2.4133     0.1016     1.1249 C.3     
   6 C6             2.1660     1.6066     0.9657 C.3     
   7 N7            -1.1439     2.8303     1.5749 N.2     
   8 N8            -1.3701     1.5776     1.3737 N.2     
   9 C9             0.1473     3.0727     1.4724 C.2     
  10 C10            0.8152     4.3819     1.6394 C.ar    
  11 C11            2.1106     4.5734     1.1569 C.ar    
  12 C12            2.7293     5.7978     1.3156 C.ar    
  13 C13            2.0642     6.8356     1.9540 C.ar    
  14 C14            0.7788     6.6485     2.4343 C.ar    
  15 C15            0.1499     5.4308     2.2746 C.ar    
  16 F16            2.6730     8.0318     2.1077 F       
  17 F17            3.9833     5.9856     0.8493 F       
  18 C18            1.6875    -1.4252    -0.6523 C.2     
  19 O19            2.8280    -1.4495    -1.0727 O.2     
  20 C20            0.6471    -2.2548    -1.2921 C.ar    
  21 C21            0.5576    -2.3166    -2.6860 C.ar    
  22 C22           -0.4168    -3.0942    -3.2776 C.ar    
  23 C23           -1.3049    -3.8125    -2.4925 C.ar    
  24 C24           -1.2203    -3.7541    -1.1096 C.ar    
  25 C25           -0.2478    -2.9854    -0.5073 C.ar    
  26 F26           -2.2570    -4.5723    -3.0768 F       
  27 Cl27           1.6692    -1.4167    -3.6700 Cl      
  28 H28           -0.1816    -1.0881     1.7563 H       
  29 H29           -0.7039    -0.8411     0.0664 H       
  30 H30            2.3781    -0.1632     2.1816 H       
  31 H31            3.3925    -0.1513     0.7182 H       
  32 H32            2.4464     1.9173    -0.0407 H       
  33 H33            2.7626     2.1531     1.6962 H       
  34 H34            2.6282     3.7657     0.6608 H       
  35 H35            0.2659     7.4588     2.9309 H       
  36 H36           -0.8544     5.2883     2.6452 H       
  37 H37           -0.4877    -3.1429    -4.3542 H       
  38 H38           -1.9156    -4.3155    -0.5031 H       
  39 H39           -0.1803    -2.9449     0.5698 H       
@<TRIPOS>BOND
   1    1    2 1
   2    1    3 1
   3    1    8 2
   4    2    4 1
   5    2   28 1
   6    2   29 1
   7    3    6 1
   8    3    9 1
   9    4    5 1
  10    4   18 am
  11    5    6 1
  12    5   30 1
  13    5   31 1
  14    6   32 1
  15    6   33 1
  16    7    8 1
  17    7    9 2
  18    9   10 1
  19   10   11 ar
  20   10   15 ar
  21   11   12 ar
  22   11   34 1
  23   12   13 ar
  24   12   17 1
  25   13   14 ar
  26   13   16 1
  27   14   15 ar
  28   14   35 1
  29   15   36 1
  30   18   19 2
  31   18   20 1
  32   20   21 ar
  33   20   25 ar
  34   21   22 ar
  35   21   27 1
  36   22   23 ar
  37   22   37 1
  38   23   24 ar
  39   23   26 1
  40   24   25 ar
  41   24   38 1
  42   25   39 1

#	End of record

