#	Name: ASD08150962
#	Creating user name:	WinNT
#	Creation time:	15. 06. 2019 21:16

#	Modifying user name:	WinNT
#	Modification time:	15. 06. 2019 21:16

#	Program:	/corina/corina34_cracker 3.40 0067  02.08.2006

@<TRIPOS>MOLECULE
ASD08150962
  60   64    0    0    0
SMALL
NO_CHARGES


@<TRIPOS>ATOM
   1 N1             0.5647     0.4386     1.2271 N.am    
   2 C2             1.8589     1.1370     1.2015 C.3     
   3 C3             2.8882     0.2296     0.5193 C.3     
   4 N4             2.3783    -0.1820    -0.7955 N.3     
   5 C5             1.1528    -0.9814    -0.6653 C.3     
   6 C6             0.0523    -0.1236    -0.0317 C.3     
   7 C7            -0.1305     0.3123     2.3748 C.2     
   8 O8             0.4241     0.4821     3.4434 O.2     
   9 N9            -1.4406    -0.0023     2.3379 N.am    
  10 C10           -2.1418    -0.3652     3.5720 C.3     
  11 C11           -2.1634     0.0186     1.0638 C.3     
  12 N12            3.4005    -2.6329     0.1057 N.ar    
  13 C13            3.8570    -3.7767     0.5549 C.ar    
  14 C14            4.8301    -4.4981    -0.1335 C.ar    
  15 C15            5.3321    -4.0158    -1.3086 C.ar    
  16 C16            4.8387    -2.7873    -1.7874 C.ar    
  17 C17            5.3082    -2.2305    -2.9888 C.ar    
  18 C18            4.8100    -1.0395    -3.4258 C.ar    
  19 C19            3.8375    -0.3602    -2.6983 C.ar    
  20 C20            3.3527    -0.8741    -1.5153 C.ar    
  21 C21            3.8495    -2.1062    -1.0367 C.ar    
  22 C22            3.3087     0.9548    -3.2101 C.3     
  23 C23            4.1302     2.1008    -2.6161 C.3     
  24 N24            3.4110     0.9869    -4.6712 N.pl3   
  25 N25            3.4393     1.2462    -7.7343 N.2     
  26 C26            3.1248     1.6825    -8.9194 C.2     
  27 N27            2.1743     2.6547    -8.8207 N.pl3   
  28 C28            1.8923     2.8204    -7.4882 C.ar    
  29 N29            1.0722     3.6011    -6.7926 N.ar    
  30 C30            1.0261     3.5244    -5.4792 C.ar    
  31 N31            1.7778     2.6845    -4.7914 N.ar    
  32 C32            2.6278     1.8643    -5.4006 C.ar    
  33 C33            2.7127     1.9086    -6.8024 C.ar    
  34 Cl34           6.5214    -3.0578    -3.9148 Cl      
  35 H35            1.7621     2.0669     0.6411 H       
  36 H36            2.1791     1.3522     2.2209 H       
  37 H37            3.8246     0.7729     0.3924 H       
  38 H38            3.0600    -0.6530     1.1354 H       
  39 H39            0.8305    -1.3163    -1.6513 H       
  40 H40            1.3487    -1.8471    -0.0327 H       
  41 H41           -0.8219    -0.7419     0.1725 H       
  42 H42           -0.2182     0.6851    -0.7106 H       
  43 H43           -2.5570     0.5320     4.0312 H       
  44 H44           -2.9479    -1.0613     3.3406 H       
  45 H45           -1.4420    -0.8361     4.2624 H       
  46 H46           -2.1679    -0.9823     0.6322 H       
  47 H47           -3.1892     0.3458     1.2334 H       
  48 H48           -1.6708     0.7079     0.3780 H       
  49 H49            3.4689    -4.1700     1.4828 H       
  50 H50            5.1873    -5.4375     0.2618 H       
  51 H51            6.0869    -4.5616    -1.8551 H       
  52 H52            5.1752    -0.6169    -4.3502 H       
  53 H53            2.2649     1.0658    -2.9164 H       
  54 H54            3.8060     3.0451    -3.0535 H       
  55 H55            3.9838     2.1312    -1.5364 H       
  56 H56            5.1862     1.9425    -2.8353 H       
  57 H57            4.0276     0.3931    -5.1274 H       
  58 H58            3.5541     1.3272    -9.8446 H       
  59 H59            1.7715     3.1404    -9.5573 H       
  60 H60            0.3485     4.1733    -4.9442 H       
@<TRIPOS>BOND
   1    1    2 1
   2    1    6 1
   3    1    7 am
   4    2    3 1
   5    2   35 1
   6    2   36 1
   7    3    4 1
   8    3   37 1
   9    3   38 1
  10    4    5 1
  11    4   20 1
  12    5    6 1
  13    5   39 1
  14    5   40 1
  15    6   41 1
  16    6   42 1
  17    7    8 2
  18    7    9 am
  19    9   10 1
  20    9   11 1
  21   10   43 1
  22   10   44 1
  23   10   45 1
  24   11   46 1
  25   11   47 1
  26   11   48 1
  27   12   13 ar
  28   12   21 ar
  29   13   14 ar
  30   13   49 1
  31   14   15 ar
  32   14   50 1
  33   15   16 ar
  34   15   51 1
  35   16   17 ar
  36   16   21 ar
  37   17   18 ar
  38   17   34 1
  39   18   19 ar
  40   18   52 1
  41   19   20 ar
  42   19   22 1
  43   20   21 ar
  44   22   23 1
  45   22   24 1
  46   22   53 1
  47   23   54 1
  48   23   55 1
  49   23   56 1
  50   24   32 1
  51   24   57 1
  52   25   26 2
  53   25   33 1
  54   26   27 1
  55   26   58 1
  56   27   28 1
  57   27   59 1
  58   28   29 ar
  59   28   33 ar
  60   29   30 ar
  61   30   31 ar
  62   30   60 1
  63   31   32 ar
  64   32   33 ar

#	End of record

