#	Name: ASD00172007
#	Creating user name:	WinNT
#	Creation time:	15. 06. 2019 18:33

#	Modifying user name:	WinNT
#	Modification time:	15. 06. 2019 18:33

#	Program:	/corina/corina34_cracker 3.40 0067  02.08.2006

@<TRIPOS>MOLECULE
ASD00172007
  34   35    0    0    0
SMALL
NO_CHARGES


@<TRIPOS>ATOM
   1 C1            -0.0159     1.3224     0.0093 C.2     
   2 C2             0.0021    -0.0041     0.0020 C.2     
   3 C3            -1.3526    -0.5604    -0.0848 C.2     
   4 C4            -2.3365     0.3819    -0.0772 C.2     
   5 S5            -1.6663     1.9416     0.0135 S.3     
   6 N6            -3.6899     0.1082    -0.1356 N.pl3   
   7 C7            -1.6225    -1.9971    -0.1724 C.2     
   8 N8            -1.6975    -2.5964    -1.3772 N.am    
   9 O9            -1.7792    -2.6500     0.8430 O.2     
  10 C10            1.1954     2.2353     0.0026 C.3     
  11 C11            1.7521     2.2733    -1.4238 C.3     
  12 C12            2.0110     0.8368    -1.8893 C.3     
  13 C13            3.0685     0.2897    -0.9520 C.3     
  14 C14            2.5044    -0.2303     0.3583 C.3     
  15 C15            1.1820    -0.9585     0.1546 C.3     
  16 C16            0.7356     2.9388    -2.3538 C.3     
  17 H17           -3.9972    -0.8104    -0.1864 H       
  18 H18           -4.3325     0.8347    -0.1258 H       
  19 H19           -1.5726    -2.0762    -2.1863 H       
  20 H20           -1.8763    -3.5481    -1.4353 H       
  21 H21            0.9020     3.2389     0.3105 H       
  22 H22            1.9529     1.8472     0.6835 H       
  23 H23            2.6858     2.8356    -1.4369 H       
  24 H24            1.0982     0.2459    -1.8134 H       
  25 H25            2.3790     0.8338    -2.9153 H       
  26 H26            3.5929    -0.5235    -1.4537 H       
  27 H27            3.7851     1.0816    -0.7338 H       
  28 H28            3.2226    -0.9168     0.8067 H       
  29 H29            2.3471     0.6092     1.0355 H       
  30 H30            1.0015    -1.6069     1.0120 H       
  31 H31            1.2540    -1.5751    -0.7413 H       
  32 H32            0.5429     3.9560    -2.0129 H       
  33 H33            1.1338     2.9648    -3.3681 H       
  34 H34           -0.1939     2.3696    -2.3428 H       
@<TRIPOS>BOND
   1    1    2 2
   2    1   10 1
   3    1    5 1
   4    2    3 1
   5    2   15 1
   6    3    4 2
   7    3    7 1
   8    4    5 1
   9    4    6 1
  10    6   17 1
  11    6   18 1
  12    7    8 am
  13    7    9 2
  14    8   19 1
  15    8   20 1
  16   10   11 1
  17   10   21 1
  18   10   22 1
  19   11   12 1
  20   11   16 1
  21   11   23 1
  22   12   13 1
  23   12   24 1
  24   12   25 1
  25   13   14 1
  26   13   26 1
  27   13   27 1
  28   14   15 1
  29   14   28 1
  30   14   29 1
  31   15   30 1
  32   15   31 1
  33   16   32 1
  34   16   33 1
  35   16   34 1

#	End of record

