#	Name: ASD01478082
#	Creating user name:	WinNT
#	Creation time:	15. 06. 2019 19:21

#	Modifying user name:	WinNT
#	Modification time:	15. 06. 2019 19:21

#	Program:	/corina/corina34_cracker 3.40 0067  02.08.2006

@<TRIPOS>MOLECULE
ASD01478082
  47   48    0    0    0
SMALL
NO_CHARGES


@<TRIPOS>ATOM
   1 O1             0.2362     0.7008    -0.6114 O.3     
   2 C2             0.5486    -0.6545    -0.9377 C.3     
   3 C3             0.5235    -1.5074     0.3323 C.3     
   4 O4             1.1332    -2.7718     0.0675 O.3     
   5 C5             2.5105    -2.8500     0.4367 C.3     
   6 C6             3.3841    -2.7304    -0.8141 C.3     
   7 O7             4.5286    -1.9279    -0.5190 O.3     
   8 C8             4.9308    -1.0622    -1.5816 C.3     
   9 C9             5.0090     0.3762    -1.0645 C.3     
  10 O10            4.3697     1.2514    -1.9951 O.3     
  11 C11            3.5290     2.2367    -1.3925 C.3     
  12 C12            2.0628     1.8894    -1.6603 C.3     
  13 C13            1.3792     1.5153    -0.3439 C.3     
  14 O14            1.3931     3.0376    -2.2451 O.3     
  15 C15            0.3717     2.7870    -3.0841 C.2     
  16 O16            0.0482     1.6408    -3.3217 O.2     
  17 O17           -0.2915     3.8065    -3.6602 O.3     
  18 C18           -1.3800     3.4892    -4.4102 C.ar    
  19 C19           -2.5735     3.1457    -3.7922 C.ar    
  20 C20           -3.6783     2.8242    -4.5566 C.ar    
  21 C21           -3.5951     2.8441    -5.9366 C.ar    
  22 C22           -2.4067     3.1862    -6.5550 C.ar    
  23 C23           -1.3006     3.5140    -5.7950 C.ar    
  24 N24           -4.7802     2.4983    -6.7534 N.pl3   
  25 O25           -5.8275     2.1964    -6.2097 O.2     
  26 O26           -4.7080     2.5155    -7.9691 O.2     
  27 H27           -0.1869    -1.0363    -1.6460 H       
  28 H28            1.5413    -0.7008    -1.3855 H       
  29 H29            1.0674    -0.9959     1.1257 H       
  30 H30           -0.5102    -1.6619     0.6443 H       
  31 H31            2.7527    -2.0420     1.1266 H       
  32 H32            2.7024    -3.8085     0.9206 H       
  33 H33            3.7081    -3.7238    -1.1260 H       
  34 H34            2.8094    -2.2694    -1.6165 H       
  35 H35            5.9107    -1.3685    -1.9486 H       
  36 H36            4.2068    -1.1164    -2.3940 H       
  37 H37            4.5104     0.4410    -0.0977 H       
  38 H38            6.0545     0.6646    -0.9537 H       
  39 H39            3.7063     2.2628    -0.3176 H       
  40 H40            3.7529     3.2149    -1.8193 H       
  41 H41            2.0102     1.0486    -2.3514 H       
  42 H42            1.0649     2.4231     0.1720 H       
  43 H43            2.0780     0.9646     0.2858 H       
  44 H44           -2.6387     3.1293    -2.7143 H       
  45 H45           -4.6077     2.5567    -4.0759 H       
  46 H46           -2.3441     3.2007    -7.6331 H       
  47 H47           -0.3737     3.7851    -6.2785 H       
@<TRIPOS>BOND
   1    1    2 1
   2    1   13 1
   3    2    3 1
   4    2   27 1
   5    2   28 1
   6    3    4 1
   7    3   29 1
   8    3   30 1
   9    4    5 1
  10    5    6 1
  11    5   31 1
  12    5   32 1
  13    6    7 1
  14    6   33 1
  15    6   34 1
  16    7    8 1
  17    8    9 1
  18    8   35 1
  19    8   36 1
  20    9   10 1
  21    9   37 1
  22    9   38 1
  23   10   11 1
  24   11   12 1
  25   11   39 1
  26   11   40 1
  27   12   13 1
  28   12   14 1
  29   12   41 1
  30   13   42 1
  31   13   43 1
  32   14   15 1
  33   15   16 2
  34   15   17 1
  35   17   18 1
  36   18   19 ar
  37   18   23 ar
  38   19   20 ar
  39   19   44 1
  40   20   21 ar
  41   20   45 1
  42   21   22 ar
  43   21   24 1
  44   22   23 ar
  45   22   46 1
  46   23   47 1
  47   24   25 2
  48   24   26 2

#	End of record

