#	Name: ASD03240072
#	Creating user name:	WinNT
#	Creation time:	15. 06. 2019 20:34

#	Modifying user name:	WinNT
#	Modification time:	15. 06. 2019 20:34

#	Program:	/corina/corina34_cracker 3.40 0067  02.08.2006

@<TRIPOS>MOLECULE
ASD03240072
  72   77    0    0    0
SMALL
NO_CHARGES


@<TRIPOS>ATOM
   1 C1            -0.0268     1.4078     0.0659 C.ar    
   2 C2            -0.0015     0.0020     0.0063 C.ar    
   3 C3             1.1822     2.1107     0.0619 C.ar    
   4 C4             2.3693     1.3846    -0.0014 C.ar    
   5 C5             2.3117    -0.0183    -0.0585 C.ar    
   6 N6             1.1463    -0.6515    -0.0528 N.ar    
   7 C7             3.5679    -0.7995    -0.1260 C.ar    
   8 C8             3.6768     2.0830    -0.0088 C.ar    
   9 C9             3.9037     3.1339    -0.8963 C.ar    
  10 C10            5.1229     3.7804    -0.8987 C.ar    
  11 C11            6.1189     3.3874    -0.0227 C.ar    
  12 C12            5.8995     2.3453     0.8602 C.ar    
  13 C13            4.6823     1.6952     0.8756 C.ar    
  14 C14            3.6586    -2.0363     0.5125 C.ar    
  15 C15            4.8317    -2.7597     0.4456 C.ar    
  16 C16            5.9167    -2.2604    -0.2526 C.ar    
  17 C17            5.8330    -1.0342    -0.8880 C.ar    
  18 C18            4.6635    -0.3041    -0.8332 C.ar    
  19 C19            7.1953    -3.0551    -0.3209 C.3     
  20 N20            7.1596    -3.9404    -1.4926 N.3     
  21 C21            8.4726    -4.5539    -1.7289 C.3     
  22 C22            8.4372    -5.3510    -3.0348 C.3     
  23 C23            7.3577    -6.4325    -2.9378 C.3     
  24 C24            6.0085    -5.7710    -2.6435 C.3     
  25 C25            6.1144    -4.9618    -1.3489 C.3     
  26 N26            7.2793    -7.1611    -4.2064 N.am    
  27 C27            7.4914    -8.5273    -4.3763 C.ar    
  28 C28            7.3178    -8.7967    -5.7352 C.ar    
  29 N29            7.0055    -7.5860    -6.3490 N.am    
  30 C30            6.9843    -6.6254    -5.4058 C.2     
  31 C31            7.8133    -9.5560    -3.5040 C.ar    
  32 C32            7.9608   -10.8428    -3.9832 C.ar    
  33 C33            7.7886   -11.1099    -5.3307 C.ar    
  34 C34            7.4679   -10.0919    -6.2071 C.ar    
  35 O35            6.7434    -5.4498    -5.6081 O.2     
  36 N36           -1.1911    -0.7043     0.0101 N.3     
  37 C37           -1.3555    -1.4652    -1.2356 C.3     
  38 C38           -1.2755    -1.5870     1.1813 C.3     
  39 C39           -1.2739     2.1093     0.1239 C.1     
  40 N40           -2.2632     2.6658     0.1698 N.1     
  41 H41            1.1952     3.1897     0.1064 H       
  42 H42            3.1270     3.4413    -1.5808 H       
  43 H43            5.3000     4.5944    -1.5860 H       
  44 H44            7.0716     3.8960    -0.0284 H       
  45 H45            6.6807     2.0429     1.5418 H       
  46 H46            4.5121     0.8817     1.5653 H       
  47 H47            2.8125    -2.4268     1.0584 H       
  48 H48            4.9031    -3.7174     0.9395 H       
  49 H49            6.6834    -0.6498    -1.4315 H       
  50 H50            4.5994     0.6530    -1.3296 H       
  51 H51            8.0422    -2.3742    -0.4056 H       
  52 H52            7.2996    -3.6540     0.5839 H       
  53 H53            9.2305    -3.7738    -1.8000 H       
  54 H54            8.7155    -5.2217    -0.9023 H       
  55 H55            8.2080    -4.6813    -3.8638 H       
  56 H56            9.4073    -5.8190    -3.2019 H       
  57 H57            7.6070    -7.1250    -2.1338 H       
  58 H58            5.7411    -5.1080    -3.4662 H       
  59 H59            5.2434    -6.5392    -2.5309 H       
  60 H60            6.3683    -5.6276    -0.5241 H       
  61 H61            5.1594    -4.4779    -1.1440 H       
  62 H62            6.8296    -7.4575    -7.2942 H       
  63 H63            7.9488    -9.3513    -2.4522 H       
  64 H64            8.2119   -11.6440    -3.3040 H       
  65 H65            7.9056   -12.1188    -5.6980 H       
  66 H66            7.3340   -10.3042    -7.2575 H       
  67 H67           -0.5310    -2.1701    -1.3424 H       
  68 H68           -2.2986    -2.0110    -1.2062 H       
  69 H69           -1.3591    -0.7792    -2.0827 H       
  70 H70           -1.1255    -1.0021     2.0887 H       
  71 H71           -2.2579    -2.0583     1.2110 H       
  72 H72           -0.5057    -2.3557     1.1131 H       
@<TRIPOS>BOND
   1    1    2 ar
   2    1    3 ar
   3    1   39 1
   4    2   36 1
   5    2    6 ar
   6    3    4 ar
   7    3   41 1
   8    4    5 ar
   9    4    8 1
  10    5    6 ar
  11    5    7 1
  12    7   14 ar
  13    7   18 ar
  14    8    9 ar
  15    8   13 ar
  16    9   10 ar
  17    9   42 1
  18   10   11 ar
  19   10   43 1
  20   11   12 ar
  21   11   44 1
  22   12   13 ar
  23   12   45 1
  24   13   46 1
  25   14   15 ar
  26   14   47 1
  27   15   16 ar
  28   15   48 1
  29   16   17 ar
  30   16   19 1
  31   17   18 ar
  32   17   49 1
  33   18   50 1
  34   19   20 1
  35   19   51 1
  36   19   52 1
  37   20   21 1
  38   20   25 1
  39   21   22 1
  40   21   53 1
  41   21   54 1
  42   22   23 1
  43   22   55 1
  44   22   56 1
  45   23   24 1
  46   23   26 1
  47   23   57 1
  48   24   25 1
  49   24   58 1
  50   24   59 1
  51   25   60 1
  52   25   61 1
  53   26   27 1
  54   26   30 am
  55   27   28 ar
  56   27   31 ar
  57   28   29 1
  58   28   34 ar
  59   29   30 am
  60   29   62 1
  61   30   35 2
  62   31   32 ar
  63   31   63 1
  64   32   33 ar
  65   32   64 1
  66   33   34 ar
  67   33   65 1
  68   34   66 1
  69   36   37 1
  70   36   38 1
  71   37   67 1
  72   37   68 1
  73   37   69 1
  74   38   70 1
  75   38   71 1
  76   38   72 1
  77   39   40 3

#	End of record

