#	Name: ASD02500200
#	Creating user name:	WinNT
#	Creation time:	15. 06. 2019 20:22

#	Modifying user name:	WinNT
#	Modification time:	15. 06. 2019 20:22

#	Program:	/corina/corina34_cracker 3.40 0067  02.08.2006

@<TRIPOS>MOLECULE
ASD02500200
  63   67    0    0    0
SMALL
NO_CHARGES


@<TRIPOS>ATOM
   1 N1            -5.2366     4.9130     0.7839 N.ar    
   2 C2            -6.4477     5.3842     0.6125 C.ar    
   3 C3            -7.5140     4.9734     1.4098 C.ar    
   4 C4            -7.3103     4.0558     2.4006 C.ar    
   5 C5            -6.0084     3.5516     2.5816 C.ar    
   6 C6            -5.7225     2.6066     3.5796 C.ar    
   7 C7            -4.4500     2.1434     3.7230 C.ar    
   8 C8            -3.4269     2.5953     2.8923 C.ar    
   9 C9            -3.6687     3.5109     1.9147 C.ar    
  10 C10           -4.9694     4.0128     1.7355 C.ar    
  11 S11           -2.3561     4.0658     0.8785 S.o2    
  12 O12           -2.4019     5.4859     0.8987 O.2     
  13 O13           -1.2062     3.3199     1.2535 O.2     
  14 N14           -2.7263     3.6079    -0.6692 N.am    
  15 C15           -2.7420     2.2601    -1.0106 C.ar    
  16 C16           -2.3621     1.8629    -2.2899 C.ar    
  17 C17           -2.3766     0.5299    -2.6307 C.ar    
  18 C18           -2.7733    -0.4261    -1.6908 C.ar    
  19 C19           -3.1540    -0.0242    -0.4073 C.ar    
  20 C20           -3.1320     1.3101    -0.0708 C.ar    
  21 C21           -1.9352     2.8941    -3.3025 C.3     
  22 C22           -2.7904    -1.8560    -2.0531 C.2     
  23 O23           -3.2307    -2.2048    -3.1315 O.2     
  24 N24           -2.3180    -2.7759    -1.1887 N.am    
  25 C25           -2.2392    -4.1923    -1.5728 C.3     
  26 C26           -0.7971    -4.6747    -1.3736 C.3     
  27 N27           -0.3509    -4.2792    -0.0303 N.am    
  28 C28           -0.4296    -2.8628     0.3537 C.3     
  29 C29           -1.8666    -2.3796     0.1526 C.3     
  30 C30            0.1215    -5.1991     0.8340 C.2     
  31 C31            0.6628    -4.7748     2.1414 C.ar    
  32 C32            0.4723    -5.5736     3.2712 C.ar    
  33 C33            0.9806    -5.1723     4.4900 C.ar    
  34 C34            1.6801    -3.9769     4.5927 C.ar    
  35 C35            1.8705    -3.1819     3.4739 C.ar    
  36 C36            1.3715    -3.5769     2.2506 C.ar    
  37 O37            0.1023    -6.3779     0.5378 O.2     
  38 F38            2.1761    -3.5877     5.7876 F       
  39 F39            0.7973    -5.9430     5.5843 F       
  40 H40           -6.6236     6.1105    -0.1673 H       
  41 H41           -8.5006     5.3804     1.2446 H       
  42 H42           -8.1252     3.7265     3.0282 H       
  43 H43           -6.5071     2.2493     4.2301 H       
  44 H44           -4.2309     1.4164     4.4910 H       
  45 H45           -2.4257     2.2132     3.0265 H       
  46 H46           -2.9322     4.2799    -1.3377 H       
  47 H47           -2.0822     0.2225    -3.6233 H       
  48 H48           -3.4609    -0.7604     0.3209 H       
  49 H49           -3.4215     1.6209     0.9222 H       
  50 H50           -0.8591     3.0514    -3.2293 H       
  51 H51           -2.1840     2.5443    -4.3044 H       
  52 H52           -2.4537     3.8325    -3.1062 H       
  53 H53           -2.9111    -4.7791    -0.9464 H       
  54 H54           -2.5209    -4.3036    -2.6199 H       
  55 H55           -0.7581    -5.7599    -1.4673 H       
  56 H56           -0.1514    -4.2169    -2.1231 H       
  57 H57           -0.1480    -2.7515     1.4008 H       
  58 H58            0.2422    -2.2760    -0.2727 H       
  59 H59           -1.9022    -1.2941     0.2447 H       
  60 H60           -2.5113    -2.8344     0.9047 H       
  61 H61           -0.0720    -6.5030     3.1914 H       
  62 H62            2.4149    -2.2530     3.5593 H       
  63 H63            1.5248    -2.9580     1.3789 H       
@<TRIPOS>BOND
   1    1    2 ar
   2    1   10 ar
   3    2    3 ar
   4    2   40 1
   5    3    4 ar
   6    3   41 1
   7    4    5 ar
   8    4   42 1
   9    5    6 ar
  10    5   10 ar
  11    6    7 ar
  12    6   43 1
  13    7    8 ar
  14    7   44 1
  15    8    9 ar
  16    8   45 1
  17    9   10 ar
  18    9   11 1
  19   11   12 2
  20   11   13 2
  21   11   14 am
  22   14   15 1
  23   14   46 1
  24   15   16 ar
  25   15   20 ar
  26   16   17 ar
  27   16   21 1
  28   17   18 ar
  29   17   47 1
  30   18   19 ar
  31   18   22 1
  32   19   20 ar
  33   19   48 1
  34   20   49 1
  35   21   50 1
  36   21   51 1
  37   21   52 1
  38   22   23 2
  39   22   24 am
  40   24   25 1
  41   24   29 1
  42   25   26 1
  43   25   53 1
  44   25   54 1
  45   26   27 1
  46   26   55 1
  47   26   56 1
  48   27   28 1
  49   27   30 am
  50   28   29 1
  51   28   57 1
  52   28   58 1
  53   29   59 1
  54   29   60 1
  55   30   31 1
  56   30   37 2
  57   31   32 ar
  58   31   36 ar
  59   32   33 ar
  60   32   61 1
  61   33   34 ar
  62   33   39 1
  63   34   35 ar
  64   34   38 1
  65   35   36 ar
  66   35   62 1
  67   36   63 1

#	End of record

