#	Name: ASD04882005
#	Creating user name:	WinNT
#	Creation time:	15. 06. 2019 20:53

#	Modifying user name:	WinNT
#	Modification time:	15. 06. 2019 20:53

#	Program:	/corina/corina34_cracker 3.40 0067  02.08.2006

@<TRIPOS>MOLECULE
ASD04882005
  78   82    0    0    0
SMALL
NO_CHARGES


@<TRIPOS>ATOM
   1 C1            -0.3879     2.8267     0.8482 C.ar    
   2 C2            -0.5547     1.4533     0.8174 C.ar    
   3 C3             0.5420     0.6189     0.6909 C.ar    
   4 C4             1.8105     1.1516     0.5945 C.ar    
   5 C5             1.9867     2.5375     0.6249 C.ar    
   6 C6             0.8745     3.3737     0.7529 C.ar    
   7 C7             3.3007     3.0980     0.5259 C.1     
   8 C8             4.3780     3.5575     0.4447 C.1     
   9 C9             5.6920     4.1181     0.3456 C.ar    
  10 C10            5.8682     5.5039     0.3761 C.ar    
  11 C11            7.1368     6.0366     0.2806 C.ar    
  12 C12            8.2336     5.2022     0.1550 C.ar    
  13 C13            8.0668     3.8288     0.1242 C.ar    
  14 C14            6.8047     3.2816     0.2239 C.ar    
  15 C15            9.6164     5.7920     0.0508 C.3     
  16 S16           10.0759     6.0624    -1.7071 S.3     
  17 C17           11.8157     5.5170    -1.4756 C.3     
  18 C18           11.7244     4.6786    -0.2163 C.2     
  19 N19           10.6274     4.8312     0.5157 N.am    
  20 O20           12.6060     3.9104     0.1055 O.2     
  21 C21           12.2832     4.6701    -2.6610 C.3     
  22 C22           12.3455     5.5285    -3.8981 C.2     
  23 N23           12.7346     4.9921    -5.0716 N.am    
  24 O24           12.0454     6.7021    -3.8376 O.2     
  25 C25           12.7952     5.8265    -6.2742 C.3     
  26 C26           13.2627     4.9796    -7.4596 C.3     
  27 C27           13.3250     5.8380    -8.6967 C.ar    
  28 C28           10.4400     4.1027     1.6899 C.ar    
  29 C29           10.4948     2.7137     1.6603 C.ar    
  30 C30           10.3099     1.9904     2.8193 C.ar    
  31 C31           10.0671     2.6563     4.0251 C.ar    
  32 C32           10.0130     4.0530     4.0496 C.ar    
  33 C33           10.2042     4.7681     2.8895 C.ar    
  34 C34            9.8682     1.8866     5.2679 C.2     
  35 N35            9.6344     2.5300     6.4288 N.am    
  36 O36            9.9152     0.6718     5.2447 O.2     
  37 Cl37          10.3777     0.2561     2.7821 Cl      
  38 C38           12.1679     6.1212    -9.3990 C.ar    
  39 C39           12.2204     6.9084   -10.5356 C.ar    
  40 C40           13.4338     7.4149   -10.9715 C.ar    
  41 C41           14.5981     7.1301   -10.2640 C.ar    
  42 C42           14.5383     6.3456    -9.1240 C.ar    
  43 Br43          10.5107     5.4305    -8.8053 Br      
  44 O44           13.4873     8.1885   -12.0887 O.3     
  45 C45           12.2532     8.4390   -12.7642 C.3     
  46 O46           15.7917     7.6249   -10.6887 O.3     
  47 C47           16.9449     7.2917    -9.9134 C.3     
  48 H48           -1.2489     3.4719     0.9427 H       
  49 H49           -1.5457     1.0305     0.8928 H       
  50 H50            0.4042    -0.4520     0.6679 H       
  51 H51            2.6655     0.4992     0.4962 H       
  52 H52            1.0032     4.4458     0.7767 H       
  53 H53            5.0131     6.1563     0.4737 H       
  54 H54            7.2746     7.1075     0.3037 H       
  55 H55            8.9274     3.1837     0.0260 H       
  56 H56            6.6760     2.2096     0.1997 H       
  57 H57            9.6796     6.7237     0.6131 H       
  58 H58           12.4738     6.3728    -1.3252 H       
  59 H59           13.2727     4.2646    -2.4500 H       
  60 H60           11.5818     3.8515    -2.8218 H       
  61 H61           12.9746     4.0535    -5.1200 H       
  62 H62           11.8056     6.2320    -6.4853 H       
  63 H63           13.4966     6.6452    -6.1135 H       
  64 H64           14.2522     4.5741    -7.2486 H       
  65 H65           12.5613     4.1610    -7.6204 H       
  66 H66           10.6819     2.2008     0.7284 H       
  67 H67            9.8257     4.5704     4.9789 H       
  68 H68           10.1624     5.8471     2.9083 H       
  69 H69            9.5969     3.4991     6.4473 H       
  70 H70            9.5036     2.0239     7.2460 H       
  71 H71           11.3156     7.1278   -11.0830 H       
  72 H72           15.4405     6.1233    -8.5735 H       
  73 H73           12.4371     9.0670   -13.6359 H       
  74 H74           11.8154     7.4932   -13.0836 H       
  75 H75           11.5658     8.9477   -12.0883 H       
  76 H76           16.8189     7.6634    -8.8965 H       
  77 H77           17.0678     6.2089    -9.8918 H       
  78 H78           17.8278     7.7487   -10.3605 H       
@<TRIPOS>BOND
   1    1    2 ar
   2    1    6 ar
   3    1   48 1
   4    2    3 ar
   5    2   49 1
   6    3    4 ar
   7    3   50 1
   8    4    5 ar
   9    4   51 1
  10    5    6 ar
  11    5    7 1
  12    6   52 1
  13    7    8 3
  14    8    9 1
  15    9   10 ar
  16    9   14 ar
  17   10   11 ar
  18   10   53 1
  19   11   12 ar
  20   11   54 1
  21   12   13 ar
  22   12   15 1
  23   13   14 ar
  24   13   55 1
  25   14   56 1
  26   15   16 1
  27   15   19 1
  28   15   57 1
  29   16   17 1
  30   17   18 1
  31   17   21 1
  32   17   58 1
  33   18   19 am
  34   18   20 2
  35   19   28 1
  36   21   22 1
  37   21   59 1
  38   21   60 1
  39   22   23 am
  40   22   24 2
  41   23   25 1
  42   23   61 1
  43   25   26 1
  44   25   62 1
  45   25   63 1
  46   26   27 1
  47   26   64 1
  48   26   65 1
  49   27   38 ar
  50   27   42 ar
  51   28   29 ar
  52   28   33 ar
  53   29   30 ar
  54   29   66 1
  55   30   31 ar
  56   30   37 1
  57   31   32 ar
  58   31   34 1
  59   32   33 ar
  60   32   67 1
  61   33   68 1
  62   34   35 am
  63   34   36 2
  64   35   69 1
  65   35   70 1
  66   38   39 ar
  67   38   43 1
  68   39   40 ar
  69   39   71 1
  70   40   41 ar
  71   40   44 1
  72   41   42 ar
  73   41   46 1
  74   42   72 1
  75   44   45 1
  76   45   73 1
  77   45   74 1
  78   45   75 1
  79   46   47 1
  80   47   76 1
  81   47   77 1
  82   47   78 1

#	End of record

