#	Name: ASD01884247
#	Creating user name:	WinNT
#	Creation time:	15. 06. 2019 19:47

#	Modifying user name:	WinNT
#	Modification time:	15. 06. 2019 19:47

#	Program:	/corina/corina34_cracker 3.40 0067  02.08.2006

@<TRIPOS>MOLECULE
ASD01884247
  42   45    0    0    0
SMALL
NO_CHARGES


@<TRIPOS>ATOM
   1 C1            -0.1057     1.4276    -0.6200 C.ar    
   2 C2            -0.0804     0.0322    -0.6595 C.ar    
   3 C3            -1.2252    -0.6953    -0.4514 C.ar    
   4 C4            -2.4496    -0.0569    -0.1934 C.ar    
   5 C5            -2.4595     1.3398    -0.1564 C.ar    
   6 C6            -1.3110     2.0782    -0.3599 C.ar    
   7 N7            -3.6801    -0.6434     0.0357 N.am    
   8 C8            -4.7344     0.1452     0.2642 C.2     
   9 S9            -4.1307     1.8087     0.1863 S.3     
  10 C10            1.1337     2.2068    -0.8454 C.ar    
  11 O11           -5.8787    -0.2082     0.4816 O.2     
  12 C12           -3.8257    -2.1011     0.0275 C.3     
  13 C13           -4.0166    -2.5789    -1.3890 C.ar    
  14 C14            2.3068     1.8921    -0.1351 C.ar    
  15 C15            3.4671     2.6353    -0.3581 C.ar    
  16 C16            3.4578     3.6699    -1.2699 C.ar    
  17 C17            2.3020     3.9787    -1.9686 C.ar    
  18 C18            1.1467     3.2515    -1.7658 C.ar    
  19 C19            2.3102     0.8169     0.8107 C.1     
  20 N20            2.3129    -0.0360     1.5610 N.1     
  21 C21           -5.2590    -2.4782    -1.9924 C.ar    
  22 C22           -5.4329    -2.9176    -3.2937 C.ar    
  23 C23           -4.3667    -3.4562    -3.9890 C.ar    
  24 C24           -3.1272    -3.5567    -3.3854 C.ar    
  25 C25           -2.9508    -3.1125    -2.0880 C.ar    
  26 F26           -6.3005    -1.9520    -1.3117 F       
  27 F27           -2.3854    -4.5135    -5.4270 F       
  28 F28           -0.9438    -3.1948    -4.2430 F       
  29 C29           -1.9657    -4.1451    -4.1443 C.3     
  30 F30           -1.4899    -5.2731    -3.4674 F       
  31 H31            0.8498    -0.4800    -0.8562 H       
  32 H32           -1.1844    -1.7740    -0.4869 H       
  33 H33           -1.3477     3.1570    -0.3258 H       
  34 H34           -2.9296    -2.5581     0.4474 H       
  35 H35           -4.6920    -2.3831     0.6259 H       
  36 H36            4.3716     2.4005     0.1833 H       
  37 H37            4.3570     4.2434    -1.4400 H       
  38 H38            2.3063     4.7914    -2.6799 H       
  39 H39            0.2500     3.4985    -2.3148 H       
  40 H40           -6.4014    -2.8399    -3.7652 H       
  41 H41           -4.5021    -3.7991    -5.0041 H       
  42 H42           -1.9819    -3.1912    -1.6175 H       
@<TRIPOS>BOND
   1    1    2 ar
   2    1   10 1
   3    1    6 ar
   4    2    3 ar
   5    2   31 1
   6    3    4 ar
   7    3   32 1
   8    4    5 ar
   9    4    7 1
  10    5    6 ar
  11    5    9 1
  12    6   33 1
  13    7    8 am
  14    7   12 1
  15    8    9 1
  16    8   11 2
  17   10   14 ar
  18   10   18 ar
  19   12   13 1
  20   12   34 1
  21   12   35 1
  22   13   21 ar
  23   13   25 ar
  24   14   15 ar
  25   14   19 1
  26   15   16 ar
  27   15   36 1
  28   16   17 ar
  29   16   37 1
  30   17   18 ar
  31   17   38 1
  32   18   39 1
  33   19   20 3
  34   21   22 ar
  35   21   26 1
  36   22   23 ar
  37   22   40 1
  38   23   24 ar
  39   23   41 1
  40   24   25 ar
  41   24   29 1
  42   25   42 1
  43   27   29 1
  44   28   29 1
  45   29   30 1

#	End of record

