#	Name: ASD01150277
#	Creating user name:	WinNT
#	Creation time:	15. 06. 2019 19:03

#	Modifying user name:	WinNT
#	Modification time:	15. 06. 2019 19:03

#	Program:	/corina/corina34_cracker 3.40 0067  02.08.2006

@<TRIPOS>MOLECULE
ASD01150277
  64   67    0    0    0
SMALL
NO_CHARGES


@<TRIPOS>ATOM
   1 C1            -0.0158     1.3123     0.0093 C.2     
   2 N2             0.0021    -0.0041     0.0020 N.2     
   3 C3            -1.2464    -0.4792     0.0122 C.2     
   4 C4            -2.1134     0.6064     0.0268 C.2     
   5 N5            -1.3045     1.7452     0.0298 N.pl3   
   6 N6             1.0958     2.1231     0.0030 N.3     
   7 C7             2.3292     1.3253    -0.0137 C.3     
   8 C8             1.0586     3.0586    -1.1289 C.3     
   9 C9            -1.7378     3.0773     0.0436 C.ar    
  10 N10           -1.6126    -1.8198     0.0083 N.am    
  11 C11           -3.5222     0.5667     0.0410 C.2     
  12 O12           -4.2300     1.7167     0.0539 O.3     
  13 O13           -4.1011    -0.5047     0.0416 O.2     
  14 C14           -5.6543     1.6017     0.0678 C.3     
  15 C15           -6.0919     0.8357     1.3178 C.3     
  16 C16           -6.2786     2.9985     0.0810 C.3     
  17 C17           -6.1173     0.8480    -1.1805 C.3     
  18 C18           -1.4619     3.8873     1.1372 C.ar    
  19 C19           -1.8901     5.2003     1.1476 C.ar    
  20 C20           -2.5929     5.7085     0.0706 C.ar    
  21 C21           -2.8696     4.9042    -1.0197 C.ar    
  22 C22           -2.4391     3.5920    -1.0386 C.ar    
  23 C23           -0.6643    -2.7773    -0.0064 C.2     
  24 C24           -1.0530    -4.2006    -0.0105 C.ar    
  25 O25            0.5116    -2.4683    -0.0163 O.2     
  26 C26           -2.4058    -4.5670     0.0008 C.ar    
  27 N27           -2.7727    -5.8267    -0.0025 N.ar    
  28 C28           -1.8853    -6.8168    -0.0168 C.ar    
  29 C29           -0.5042    -6.5322    -0.0289 C.ar    
  30 C30           -0.0771    -5.2010    -0.0316 C.ar    
  31 Cl31           1.6126    -4.8030    -0.0463 Cl      
  32 N32           -2.0018    -8.1780    -0.0232 N.pl3   
  33 N33           -0.7268    -8.7512    -0.0390 N.2     
  34 C34            0.1830    -7.8196    -0.0429 C.2     
  35 C35           -3.2646    -8.9206    -0.0148 C.3     
  36 C36            1.6748    -8.0322    -0.0598 C.3     
  37 H37            2.3464     0.7017    -0.9074 H       
  38 H38            3.1923     1.9909    -0.0183 H       
  39 H39            2.3639     0.6915     0.8724 H       
  40 H40            0.1696     3.6849    -1.0537 H       
  41 H41            1.9487     3.6875    -1.1100 H       
  42 H42            1.0299     2.4977    -2.0631 H       
  43 H43           -2.5507    -2.0663     0.0162 H       
  44 H44           -5.7620     1.3727     2.2071 H       
  45 H45           -7.1783     0.7480     1.3284 H       
  46 H46           -5.6471    -0.1594     1.3084 H       
  47 H47           -5.9668     3.5443    -0.8095 H       
  48 H48           -7.3650     2.9108     0.0917 H       
  49 H49           -5.9487     3.5355     0.9704 H       
  50 H50           -5.6726    -0.1471    -1.1900 H       
  51 H51           -7.2038     0.7603    -1.1699 H       
  52 H52           -5.8056     1.3937    -2.0710 H       
  53 H53           -0.9134     3.4909     1.9788 H       
  54 H54           -1.6761     5.8308     1.9980 H       
  55 H55           -2.9266     6.7356     0.0811 H       
  56 H56           -3.4193     5.3038    -1.8591 H       
  57 H57           -2.6555     2.9643    -1.8904 H       
  58 H58           -3.1622    -3.7962     0.0129 H       
  59 H59           -3.5880    -9.0990    -1.0404 H       
  60 H60           -3.1217    -9.8748     0.4923 H       
  61 H61           -4.0238    -8.3404     0.5098 H       
  62 H62            2.0237    -8.0776    -1.0914 H       
  63 H63            2.1655    -7.2053     0.4536 H       
  64 H64            1.9143    -8.9675     0.4462 H       
@<TRIPOS>BOND
   1    1    2 2
   2    1    6 1
   3    1    5 1
   4    2    3 1
   5    3    4 2
   6    3   10 1
   7    4    5 1
   8    4   11 1
   9    5    9 1
  10    6    7 1
  11    6    8 1
  12    7   37 1
  13    7   38 1
  14    7   39 1
  15    8   40 1
  16    8   41 1
  17    8   42 1
  18    9   18 ar
  19    9   22 ar
  20   10   23 am
  21   10   43 1
  22   11   12 1
  23   11   13 2
  24   12   14 1
  25   14   15 1
  26   14   16 1
  27   14   17 1
  28   15   44 1
  29   15   45 1
  30   15   46 1
  31   16   47 1
  32   16   48 1
  33   16   49 1
  34   17   50 1
  35   17   51 1
  36   17   52 1
  37   18   19 ar
  38   18   53 1
  39   19   20 ar
  40   19   54 1
  41   20   21 ar
  42   20   55 1
  43   21   22 ar
  44   21   56 1
  45   22   57 1
  46   23   24 1
  47   23   25 2
  48   24   26 ar
  49   24   30 ar
  50   26   27 ar
  51   26   58 1
  52   27   28 ar
  53   28   29 ar
  54   28   32 1
  55   29   30 ar
  56   29   34 1
  57   30   31 1
  58   32   33 1
  59   32   35 1
  60   33   34 2
  61   34   36 1
  62   35   59 1
  63   35   60 1
  64   35   61 1
  65   36   62 1
  66   36   63 1
  67   36   64 1

#	End of record

