#	Name: ASD07930805
#	Creating user name:	WinNT
#	Creation time:	15. 06. 2019 21:13

#	Modifying user name:	WinNT
#	Modification time:	15. 06. 2019 21:13

#	Program:	/corina/corina34_cracker 3.40 0067  02.08.2006

@<TRIPOS>MOLECULE
ASD07930805
  47   50    0    0    0
SMALL
NO_CHARGES


@<TRIPOS>ATOM
   1 C1             3.1720    -1.3811    -2.0018 C.3     
   2 N2             2.7736    -3.3443     0.2113 N.2     
   3 N3             0.6660    -3.6438    -0.7529 N.pl3   
   4 C4            -0.6362    -2.9991    -0.5535 C.3     
   5 C5            -0.7612    -1.8048    -1.5096 C.3     
   6 S6             0.6454    -0.6874    -1.2147 S.o2    
   7 N7             1.9517    -1.7205    -1.2656 N.am    
   8 C8             1.8266    -2.9185    -0.5766 C.2     
   9 C9            -0.7483    -2.5103     0.8919 C.3     
  10 C10           -1.7365    -3.9888    -0.8379 C.ar    
  11 C11           -2.6355    -3.7410    -1.8545 C.ar    
  12 C12           -3.6483    -4.6506    -2.1180 C.ar    
  13 C13           -3.7576    -5.8216    -1.3504 C.ar    
  14 C14           -2.8399    -6.0598    -0.3240 C.ar    
  15 C15           -1.8359    -5.1475    -0.0784 C.ar    
  16 F16           -0.9481    -5.3777     0.9136 F       
  17 N17           -4.6815    -4.6970    -3.0408 N.pl3   
  18 C18           -5.3700    -5.8552    -2.8192 C.2     
  19 N19           -4.8257    -6.5137    -1.8264 N.2     
  20 N20           -6.4746    -6.2705    -3.5352 N.pl3   
  21 O21            0.8365     0.1853    -2.3198 O.2     
  22 O22            0.6291    -0.1971     0.1189 O.2     
  23 C23           -7.0314    -7.5299    -3.2933 C.ar    
  24 C24           -8.3939    -7.7343    -3.4703 C.ar    
  25 C25           -8.9406    -8.9796    -3.2305 C.ar    
  26 C26           -8.1334   -10.0223    -2.8142 C.ar    
  27 C27           -6.7766    -9.8223    -2.6370 C.ar    
  28 C28           -6.2224    -8.5811    -2.8810 C.ar    
  29 H29            3.8593    -0.8520    -1.3417 H       
  30 H30            3.6450    -2.2947    -2.3620 H       
  31 H31            2.9196    -0.7441    -2.8495 H       
  32 H32            3.5827    -2.8213     0.3237 H       
  33 H33            0.7114    -4.5795    -1.0044 H       
  34 H34           -0.7413    -2.1563    -2.5412 H       
  35 H35           -1.6958    -1.2774    -1.3185 H       
  36 H36            0.0468    -1.7931     1.0957 H       
  37 H37           -1.7162    -2.0313     1.0395 H       
  38 H38           -0.6554    -3.3583     1.5705 H       
  39 H39           -2.5507    -2.8400    -2.4440 H       
  40 H40           -2.9147    -6.9571     0.2724 H       
  41 H41           -4.8787    -4.0309    -3.7178 H       
  42 H42           -6.8646    -5.6885    -4.2061 H       
  43 H43           -9.0250    -6.9201    -3.7947 H       
  44 H44           -9.9999    -9.1391    -3.3679 H       
  45 H45           -8.5636   -10.9950    -2.6266 H       
  46 H46           -6.1490   -10.6387    -2.3114 H       
  47 H47           -5.1626    -8.4256    -2.7428 H       
@<TRIPOS>BOND
   1    1    7 1
   2    1   29 1
   3    1   30 1
   4    1   31 1
   5    2    8 2
   6    2   32 1
   7    3    4 1
   8    3    8 1
   9    3   33 1
  10    4    5 1
  11    4    9 1
  12    4   10 1
  13    5    6 1
  14    5   34 1
  15    5   35 1
  16    6    7 am
  17    6   21 2
  18    6   22 2
  19    7    8 1
  20    9   36 1
  21    9   37 1
  22    9   38 1
  23   10   11 ar
  24   10   15 ar
  25   11   12 ar
  26   11   39 1
  27   12   13 ar
  28   12   17 1
  29   13   14 ar
  30   13   19 1
  31   14   15 ar
  32   14   40 1
  33   15   16 1
  34   17   18 1
  35   17   41 1
  36   18   19 2
  37   18   20 1
  38   20   23 1
  39   20   42 1
  40   23   24 ar
  41   23   28 ar
  42   24   25 ar
  43   24   43 1
  44   25   26 ar
  45   25   44 1
  46   26   27 ar
  47   26   45 1
  48   27   28 ar
  49   27   46 1
  50   28   47 1

#	End of record

