#	Name: ASD01130005
#	Creating user name:	WinNT
#	Creation time:	15. 06. 2019 18:59

#	Modifying user name:	WinNT
#	Modification time:	15. 06. 2019 18:59

#	Program:	/corina/corina34_cracker 3.40 0067  02.08.2006

@<TRIPOS>MOLECULE
ASD01130005
  25   25    0    0    0
SMALL
NO_CHARGES


@<TRIPOS>ATOM
   1 P1            -0.0198     1.6058     0.0109 P.3     
   2 O2             0.0021    -0.0041     0.0020 O.3     
   3 O3             1.3687     2.1180     0.0004 O.2     
   4 O4            -0.7984     2.1391    -1.2935 O.3     
   5 O5            -0.7733     2.1250     1.3355 O.3     
   6 C6             0.7093    -0.7782     0.9729 C.3     
   7 C7             0.5214    -2.2668     0.6735 C.3     
   8 C8             1.1748    -3.1113     1.7846 C.3     
   9 O9             1.1769    -2.6037    -0.5607 O.3     
  10 C10            2.2857    -3.9048     1.0545 C.3     
  11 O11            0.2196    -4.0038     2.3617 O.3     
  12 C12            2.5062    -3.0545    -0.2226 C.3     
  13 O13            1.8375    -5.2199     0.7204 O.3     
  14 O14            3.0480    -3.8566    -1.2738 O.3     
  15 H15           -0.8503     3.1028    -1.3539 H       
  16 H16           -1.6903     1.8268     1.4088 H       
  17 H17            1.7700    -0.5305     0.9325 H       
  18 H18            0.3219    -0.5558     1.9672 H       
  19 H19           -0.5412    -2.5001     0.6071 H       
  20 H20            1.6068    -2.4664     2.5499 H       
  21 H21            3.1936    -3.9464     1.6562 H       
  22 H22            0.5772    -4.5601     3.0672 H       
  23 H23            3.1571    -2.2062    -0.0113 H       
  24 H24            2.4985    -5.7560     0.2614 H       
  25 H25            3.1416    -3.3906    -2.1159 H       
@<TRIPOS>BOND
   1    1    2 1
   2    1    3 2
   3    1    4 1
   4    1    5 1
   5    2    6 1
   6    4   15 1
   7    5   16 1
   8    6    7 1
   9    6   17 1
  10    6   18 1
  11    7    8 1
  12    7    9 1
  13    7   19 1
  14    8   10 1
  15    8   11 1
  16    8   20 1
  17    9   12 1
  18   10   13 1
  19   10   12 1
  20   10   21 1
  21   11   22 1
  22   12   14 1
  23   12   23 1
  24   13   24 1
  25   14   25 1

#	End of record

