#	Name: ASD07300990
#	Creating user name:	WinNT
#	Creation time:	15. 06. 2019 21:10

#	Modifying user name:	WinNT
#	Modification time:	15. 06. 2019 21:10

#	Program:	/corina/corina34_cracker 3.40 0067  02.08.2006

@<TRIPOS>MOLECULE
ASD07300990
  31   32    0    0    0
SMALL
NO_CHARGES


@<TRIPOS>ATOM
   1 C1            -0.0168     1.4642     0.0591 C.2     
   2 C2             0.0021    -0.0041     0.0012 C.2     
   3 C3             1.2761    -0.6356    -0.0640 C.2     
   4 C4             2.3773     0.1601    -0.0679 C.2     
   5 N5             2.2578     1.5101    -0.0114 N.pl3   
   6 N6             1.1295     2.1151     0.0481 N.2     
   7 C7            -1.2955     2.1966     0.1223 C.2     
   8 O8            -2.3459     1.5859     0.1267 O.2     
   9 O9            -1.2988     3.5431     0.1750 O.3     
  10 C10            3.4251     2.2808    -0.0179 C.ar    
  11 C11            3.3452     3.6646    -0.1145 C.ar    
  12 C12            4.4993     4.4225    -0.1202 C.ar    
  13 C13            5.7340     3.8056    -0.0299 C.ar    
  14 C14            5.8172     2.4287     0.0659 C.ar    
  15 C15            4.6664     1.6650     0.0779 C.ar    
  16 C16            4.4137     5.9233    -0.2254 C.3     
  17 F17            4.3351     6.4770     1.0570 F       
  18 F18            5.5528     6.4110    -0.8749 F       
  19 F19            3.2737     6.2753    -0.9560 F       
  20 O20           -1.0315    -0.6549     0.0090 O.2     
  21 O21            1.3872    -1.9894    -0.1199 O.3     
  22 C22            2.7085    -2.5299    -0.1831 C.3     
  23 H23            3.3590    -0.2874    -0.1162 H       
  24 H24           -2.1612     3.9788     0.2153 H       
  25 H25            2.3814     4.1468    -0.1854 H       
  26 H26            6.6353     4.4007    -0.0345 H       
  27 H27            6.7828     1.9502     0.1359 H       
  28 H28            4.7318     0.5899     0.1572 H       
  29 H29            3.2110    -2.1576    -1.0758 H       
  30 H30            3.2678    -2.2264     0.7019 H       
  31 H31            2.6546    -3.6178    -0.2235 H       
@<TRIPOS>BOND
   1    1    2 1
   2    1    6 2
   3    1    7 1
   4    2    3 1
   5    2   20 2
   6    3    4 2
   7    3   21 1
   8    4    5 1
   9    4   23 1
  10    5    6 1
  11    5   10 1
  12    7    8 2
  13    7    9 1
  14    9   24 1
  15   10   11 ar
  16   10   15 ar
  17   11   12 ar
  18   11   25 1
  19   12   13 ar
  20   12   16 1
  21   13   14 ar
  22   13   26 1
  23   14   15 ar
  24   14   27 1
  25   15   28 1
  26   16   17 1
  27   16   18 1
  28   16   19 1
  29   21   22 1
  30   22   29 1
  31   22   30 1
  32   22   31 1

#	End of record

