#	Name: ASD05143328
#	Creating user name:	WinNT
#	Creation time:	15. 06. 2019 20:57

#	Modifying user name:	WinNT
#	Modification time:	15. 06. 2019 20:57

#	Program:	/corina/corina34_cracker 3.40 0067  02.08.2006

@<TRIPOS>MOLECULE
ASD05143328
  49   51    0    0    0
SMALL
NO_CHARGES


@<TRIPOS>ATOM
   1 C1            -0.0705     1.4718     0.4613 C.2     
   2 N2             0.0701     0.1641     0.3706 N.2     
   3 S3            -1.4787    -0.4425     0.0236 S.3     
   4 C4            -2.2395     1.1027     0.0184 C.2     
   5 N5            -1.2814     1.9635     0.2824 N.2     
   6 N6            -3.5751     1.3788    -0.2099 N.pl3   
   7 C7            -4.0227     2.7035    -0.2241 C.ar    
   8 C8            -5.3855     2.9784    -0.2427 C.ar    
   9 C9            -5.8239     4.2886    -0.2567 C.ar    
  10 C10           -4.9085     5.3255    -0.2527 C.ar    
  11 C11           -3.5528     5.0551    -0.2341 C.ar    
  12 C12           -3.1074     3.7475    -0.2138 C.ar    
  13 C13            1.2269    -0.5573     0.5245 C.ar    
  14 C14            2.3750    -0.1998    -0.1820 C.ar    
  15 C15            1.2625    -1.6529     1.3962 C.ar    
  16 C16            2.4342    -2.3746     1.5448 C.ar    
  17 C17            3.5655    -2.0142     0.8350 C.ar    
  18 C18            3.5360    -0.9294    -0.0231 C.ar    
  19 C19            1.0825     2.3522     0.7581 C.ar    
  20 C20            1.2882     3.5175     0.0108 C.ar    
  21 C21            1.9651     2.0273     1.7870 C.ar    
  22 C22            3.0378     2.8517     2.0596 C.ar    
  23 C23            3.2412     4.0003     1.3153 C.ar    
  24 C24            2.3693     4.3351     0.2960 C.ar    
  25 O25            0.1509    -2.0058     2.0939 O.3     
  26 C26            0.2619    -3.1340     2.9639 C.3     
  27 O27            0.4312     3.8452    -0.9908 O.3     
  28 C28            0.7663     4.9854    -1.7843 C.3     
  29 Cl29          -6.5347     1.6772    -0.2489 Cl      
  30 H30           -4.2015     0.6536    -0.3603 H       
  31 H31           -6.8822     4.5033    -0.2712 H       
  32 H32           -5.2536     6.3489    -0.2643 H       
  33 H33           -2.8409     5.8673    -0.2314 H       
  34 H34           -2.0481     3.5375    -0.1994 H       
  35 H35            2.3557     0.6464    -0.8528 H       
  36 H36            2.4653    -3.2200     2.2161 H       
  37 H37            4.4777    -2.5799     0.9547 H       
  38 H38            4.4235    -0.6549    -0.5739 H       
  39 H39            1.8094     1.1319     2.3703 H       
  40 H40            3.7210     2.5995     2.8572 H       
  41 H41            4.0829     4.6405     1.5344 H       
  42 H42            2.5337     5.2330    -0.2812 H       
  43 H43           -0.6939    -3.3069     3.4584 H       
  44 H44            0.5353    -4.0150     2.3833 H       
  45 H45            1.0291    -2.9405     3.7136 H       
  46 H46            0.7591     5.8781    -1.1590 H       
  47 H47            1.7592     4.8504    -2.2134 H       
  48 H48            0.0363     5.0975    -2.5860 H       
  49 Br49           9.4777    11.3489     8.7136 Br      
@<TRIPOS>BOND
   1    1    2 2
   2    1   19 1
   3    1    5 1
   4    2    3 1
   5    2   13 1
   6    3    4 1
   7    4    5 2
   8    4    6 1
   9    6    7 1
  10    6   30 1
  11    7    8 ar
  12    7   12 ar
  13    8    9 ar
  14    8   29 1
  15    9   10 ar
  16    9   31 1
  17   10   11 ar
  18   10   32 1
  19   11   12 ar
  20   11   33 1
  21   12   34 1
  22   13   14 ar
  23   13   15 ar
  24   14   18 ar
  25   14   35 1
  26   15   16 ar
  27   15   25 1
  28   16   17 ar
  29   16   36 1
  30   17   18 ar
  31   17   37 1
  32   18   38 1
  33   19   20 ar
  34   19   21 ar
  35   20   27 1
  36   20   24 ar
  37   21   22 ar
  38   21   39 1
  39   22   23 ar
  40   22   40 1
  41   23   24 ar
  42   23   41 1
  43   24   42 1
  44   25   26 1
  45   26   43 1
  46   26   44 1
  47   26   45 1
  48   27   28 1
  49   28   46 1
  50   28   47 1
  51   28   48 1

#	End of record

