#	Name: ASD04560004
#	Creating user name:	WinNT
#	Creation time:	15. 06. 2019 20:49

#	Modifying user name:	WinNT
#	Modification time:	15. 06. 2019 20:49

#	Program:	/corina/corina34_cracker 3.40 0067  02.08.2006

@<TRIPOS>MOLECULE
ASD04560004
  52   54    0    0    0
SMALL
NO_CHARGES


@<TRIPOS>ATOM
   1 C1             0.5996     1.4367     0.2693 C.ar    
   2 C2             0.5722     0.2392    -0.4433 C.ar    
   3 C3             1.7689    -0.4370    -0.7066 C.ar    
   4 C4             2.9794     0.0953    -0.2523 C.ar    
   5 C5             2.9913     1.2798     0.4514 C.ar    
   6 C6             1.8085     1.9508     0.7127 C.ar    
   7 C7             1.7532    -1.7057    -1.4596 C.2     
   8 N8             2.5576    -1.8645    -2.5292 N.am    
   9 O9             1.0145    -2.6080    -1.1151 O.2     
  10 N10           -0.5914     2.1225     0.5321 N.pl3   
  11 C11           -0.5832     3.4890     0.6564 C.2     
  12 C12            0.4244     4.5439     0.4738 C.2     
  13 C13           -1.5340     4.4590     1.0041 C.2     
  14 C14           -0.5813     5.5674     0.8474 C.2     
  15 O15            1.5972     4.5673     0.1508 O.2     
  16 O16           -0.6073     6.7782     0.9661 O.2     
  17 N17           -2.8582     4.3970     1.3579 N.pl3   
  18 C18           -3.5912     5.6263     1.6705 C.3     
  19 C19           -3.3676     5.9941     3.1387 C.3     
  20 C20           -1.8926     6.3350     3.3601 C.3     
  21 C21           -5.0623     5.4101     1.4252 C.2     
  22 C22           -5.9066     6.2991     0.8717 C.2     
  23 C23           -7.1798     5.6858     0.8331 C.2     
  24 C24           -7.0375     4.4586     1.3653 C.2     
  25 O25           -5.7517     4.2950     1.7169 O.3     
  26 C26           -8.1338     3.4384     1.5334 C.3     
  27 O27           -0.6085    -0.2686    -0.8792 O.3     
  28 C28            2.6418    -3.1665    -3.1955 C.3     
  29 C29            3.3479    -0.7352    -3.0256 C.3     
  30 H30            3.9056    -0.4226    -0.4529 H       
  31 H31            3.9284     1.6873     0.8009 H       
  32 H32            1.8277     2.8790     1.2644 H       
  33 H33           -1.4229     1.6319     0.6265 H       
  34 H34           -3.3090     3.5392     1.4010 H       
  35 H35           -3.2319     6.4353     1.0345 H       
  36 H36           -3.9824     6.8570     3.3948 H       
  37 H37           -3.6444     5.1504     3.7708 H       
  38 H38           -1.7333     6.5970     4.4061 H       
  39 H39           -1.2779     5.4721     3.1040 H       
  40 H40           -1.6158     7.1787     2.7280 H       
  41 H41           -5.6593     7.2913     0.5240 H       
  42 H42           -8.0918     6.1194     0.4501 H       
  43 H43           -8.1877     2.8128     0.6425 H       
  44 H44           -7.9205     2.8157     2.4023 H       
  45 H45           -9.0862     3.9487     1.6771 H       
  46 H46           -0.8642     0.0324    -1.7619 H       
  47 H47            1.8893    -3.2214    -3.9822 H       
  48 H48            3.6332    -3.2879    -3.6319 H       
  49 H49            2.4655    -3.9590    -2.4682 H       
  50 H50            3.1972     0.1271    -2.3760 H       
  51 H51            4.4038    -1.0054    -3.0316 H       
  52 H52            3.0305    -0.4870    -4.0384 H       
@<TRIPOS>BOND
   1    1    2 ar
   2    1    6 ar
   3    1   10 1
   4    2    3 ar
   5    2   27 1
   6    3    4 ar
   7    3    7 1
   8    4    5 ar
   9    4   30 1
  10    5    6 ar
  11    5   31 1
  12    6   32 1
  13    7    8 am
  14    7    9 2
  15    8   28 1
  16    8   29 1
  17   10   11 1
  18   10   33 1
  19   11   12 1
  20   11   13 2
  21   12   14 1
  22   12   15 2
  23   13   17 1
  24   13   14 1
  25   14   16 2
  26   17   18 1
  27   17   34 1
  28   18   19 1
  29   18   21 1
  30   18   35 1
  31   19   20 1
  32   19   36 1
  33   19   37 1
  34   20   38 1
  35   20   39 1
  36   20   40 1
  37   21   22 2
  38   21   25 1
  39   22   23 1
  40   22   41 1
  41   23   24 2
  42   23   42 1
  43   24   25 1
  44   24   26 1
  45   26   43 1
  46   26   44 1
  47   26   45 1
  48   27   46 1
  49   28   47 1
  50   28   48 1
  51   28   49 1
  52   29   50 1
  53   29   51 1
  54   29   52 1

#	End of record

