#	Name: ASD01882014
#	Creating user name:	WinNT
#	Creation time:	15. 06. 2019 19:43

#	Modifying user name:	WinNT
#	Modification time:	15. 06. 2019 19:43

#	Program:	/corina/corina34_cracker 3.40 0067  02.08.2006

@<TRIPOS>MOLECULE
ASD01882014
  55   59    0    0    0
SMALL
NO_CHARGES


@<TRIPOS>ATOM
   1 C1             1.7915     0.8756     0.0039 C.2     
   2 N2             1.0721    -0.2508    -0.0582 N.am    
   3 C3            -0.2505     0.0054    -0.0923 C.2     
   4 C4            -0.3769     1.5152    -0.0445 C.3     
   5 N5             1.0204     1.9778     0.0168 N.am    
   6 O6             3.0058     0.9001     0.0489 O.2     
   7 O7            -1.1518    -0.8034    -0.1499 O.2     
   8 C8            -1.0622     2.0383    -1.3085 C.3     
   9 C9            -1.1438     1.9519     1.2053 C.3     
  10 C10            1.6508    -1.5963    -0.0864 C.3     
  11 C11            1.4804     3.3673     0.0802 C.3     
  12 C12            1.4450     3.8434     1.5095 C.ar    
  13 C13            2.4968     3.5495     2.3608 C.ar    
  14 C14            2.4691     3.9836     3.6715 C.ar    
  15 C15            1.3798     4.7189     4.1362 C.ar    
  16 C16            0.3244     5.0118     3.2741 C.ar    
  17 C17            0.3647     4.5771     1.9647 C.ar    
  18 C18            0.9696     6.6490     9.4944 C.2     
  19 N19           -0.2175     7.2781     9.4588 N.am    
  20 C20           -0.7792     7.1508     8.1093 C.3     
  21 C21            0.2221     6.3555     7.3090 C.ar    
  22 C22            0.2520     5.9238     6.0060 C.ar    
  23 C23            1.3437     5.1875     5.5425 C.ar    
  24 C24            2.4007     4.8925     6.4042 C.ar    
  25 C25            2.3704     5.3249     7.7105 C.ar    
  26 C26            1.2784     6.0624     8.1772 C.ar    
  27 O27            1.6889     6.5780    10.4719 O.2     
  28 C28           -0.8471     7.9761    10.5825 C.3     
  29 C29           -1.1590     7.1577    11.8370 C.3     
  30 C30           -0.0126     8.1708    11.8500 C.3     
  31 Cl31           3.8522     2.6336     1.7796 Cl      
  32 H32           -2.0544     1.5952    -1.3937 H       
  33 H33           -1.1525     3.1230    -1.2504 H       
  34 H34           -0.4679     1.7695    -2.1817 H       
  35 H35           -0.6256     1.5915     2.0940 H       
  36 H36           -1.2014     3.0400     1.2346 H       
  37 H37           -2.1507     1.5353     1.1779 H       
  38 H38            2.7378    -1.5252    -0.0488 H       
  39 H39            1.2938    -2.1635     0.7732 H       
  40 H40            1.3513    -2.1014    -1.0047 H       
  41 H41            2.5006     3.4298    -0.2984 H       
  42 H42            0.8281     3.9941    -0.5279 H       
  43 H43            3.2894     3.7535     4.3352 H       
  44 H44           -0.5219     5.5812     3.6291 H       
  45 H45           -0.4510     4.8070     1.2952 H       
  46 H46           -1.7319     6.6227     8.1484 H       
  47 H47           -0.9149     8.1371     7.6655 H       
  48 H48           -0.5675     6.1533     5.3410 H       
  49 H49            3.2451     4.3229     6.0452 H       
  50 H50            3.1903     5.0948     8.3748 H       
  51 H51           -1.5448     8.7686    10.3122 H       
  52 H52           -2.0619     7.4121    12.3923 H       
  53 H53           -0.8959     6.1000    11.8263 H       
  54 H54            1.0048     7.7797    11.8479 H       
  55 H55           -0.1612     9.0918    12.4138 H       
@<TRIPOS>BOND
   1    1    2 am
   2    1    5 am
   3    1    6 2
   4    2    3 am
   5    2   10 1
   6    3    4 1
   7    3    7 2
   8    4    5 1
   9    4    8 1
  10    4    9 1
  11    5   11 1
  12    8   32 1
  13    8   33 1
  14    8   34 1
  15    9   35 1
  16    9   36 1
  17    9   37 1
  18   10   38 1
  19   10   39 1
  20   10   40 1
  21   11   12 1
  22   11   41 1
  23   11   42 1
  24   12   13 ar
  25   12   17 ar
  26   13   14 ar
  27   13   31 1
  28   14   15 ar
  29   14   43 1
  30   15   16 ar
  31   15   23 1
  32   16   17 ar
  33   16   44 1
  34   17   45 1
  35   18   19 am
  36   18   26 1
  37   18   27 2
  38   19   20 1
  39   19   28 1
  40   20   21 1
  41   20   46 1
  42   20   47 1
  43   21   22 ar
  44   21   26 ar
  45   22   23 ar
  46   22   48 1
  47   23   24 ar
  48   24   25 ar
  49   24   49 1
  50   25   26 ar
  51   25   50 1
  52   28   29 1
  53   28   30 1
  54   28   51 1
  55   29   30 1
  56   29   52 1
  57   29   53 1
  58   30   54 1
  59   30   55 1

#	End of record

