#	Name: ASD05430329
#	Creating user name:	WinNT
#	Creation time:	15. 06. 2019 21:00

#	Modifying user name:	WinNT
#	Modification time:	15. 06. 2019 21:00

#	Program:	/corina/corina34_cracker 3.40 0067  02.08.2006

@<TRIPOS>MOLECULE
ASD05430329
  58   63    0    0    0
SMALL
NO_CHARGES


@<TRIPOS>ATOM
   1 N1            -0.0178     1.4613     0.0101 N.pl3   
   2 C2             1.1819     2.2962     0.0031 C.3     
   3 O3             0.7092     3.6012     0.3506 O.3     
   4 N4            -0.7065     3.5366     0.2726 N.2     
   5 C5            -1.1021     2.3126     0.0692 C.2     
   6 C6            -2.5028     1.8975    -0.0770 C.2     
   7 C7            -3.4870     2.8123    -0.0024 C.2     
   8 C8            -4.8914     2.3961    -0.1490 C.ar    
   9 C9            -5.2048     1.0504    -0.3658 C.ar    
  10 C10           -5.9156     3.3443    -0.0661 C.ar    
  11 C11           -7.2324     2.9480    -0.2039 C.ar    
  12 C12           -7.5370     1.6053    -0.4251 C.ar    
  13 C13           -6.5199     0.6626    -0.5022 C.ar    
  14 N14           -8.8729     1.2053    -0.5642 N.pl3   
  15 C15           -9.8995     1.5148     0.2697 C.2     
  16 N16          -10.9892     0.9622    -0.1896 N.2     
  17 C17          -10.7061     0.2900    -1.3152 C.2     
  18 C18           -9.3917     0.4326    -1.5709 C.2     
  19 O19           -8.2309     3.8673    -0.1234 O.3     
  20 C20           -7.8463     5.2244     0.1052 C.3     
  21 C21          -11.6900    -0.4864    -2.1520 C.3     
  22 C22            0.0021    -0.0041     0.0020 C.3     
  23 C23            0.9286    -0.4315     1.1449 C.3     
  24 C24            2.2668     0.2656     1.0687 C.3     
  25 C25            2.2245     1.7787     0.9993 C.3     
  26 C26            3.5499     2.2611     0.3421 C.3     
  27 C27            3.2476     2.3005    -1.1304 C.ar    
  28 C28            1.8666     2.3160    -1.3275 C.ar    
  29 C29            4.1277     2.3196    -2.2007 C.ar    
  30 C30            3.5778     2.3514    -3.4745 C.ar    
  31 C31            2.2101     2.3637    -3.6709 C.ar    
  32 C32            1.3223     2.3463    -2.6009 C.ar    
  33 F33            1.7244     2.3931    -4.9312 F       
  34 H34           -2.7433     0.8580    -0.2443 H       
  35 H35           -3.2465     3.8518     0.1649 H       
  36 H36           -4.4159     0.3153    -0.4265 H       
  37 H37           -5.6782     4.3838     0.1057 H       
  38 H38           -6.7601    -0.3763    -0.6741 H       
  39 H39           -9.8262     2.1167     1.1635 H       
  40 H40           -8.8490     0.0131    -2.4050 H       
  41 H41           -7.3064     5.2950     1.0495 H       
  42 H42           -7.2027     5.5615    -0.7073 H       
  43 H43           -8.7365     5.8520     0.1479 H       
  44 H44          -12.1224     0.1701    -2.9071 H       
  45 H45          -11.1771    -1.3144    -2.6412 H       
  46 H46          -12.4823    -0.8763    -1.5130 H       
  47 H47           -1.0024    -0.3924     0.1700 H       
  48 H48            0.3902    -0.3674    -0.9495 H       
  49 H49            0.4550    -0.1890     2.0962 H       
  50 H50            1.0853    -1.5089     1.0916 H       
  51 H51            2.8485    -0.0184     1.9457 H       
  52 H52            2.7912    -0.1007     0.1862 H       
  53 H53            2.0761     2.2136     1.9877 H       
  54 H54            3.8137     3.2552     0.7030 H       
  55 H55            4.3548     1.5551     0.5465 H       
  56 H56            5.1971     2.3098    -2.0498 H       
  57 H57            4.2340     2.3673    -4.3321 H       
  58 H58            0.2536     2.3553    -2.7561 H       
@<TRIPOS>BOND
   1    1   22 1
   2    1    2 1
   3    1    5 1
   4    2    3 1
   5    2   25 1
   6    2   28 1
   7    3    4 1
   8    4    5 2
   9    5    6 1
  10    6    7 2
  11    6   34 1
  12    7    8 1
  13    7   35 1
  14    8    9 ar
  15    8   10 ar
  16    9   13 ar
  17    9   36 1
  18   10   11 ar
  19   10   37 1
  20   11   12 ar
  21   11   19 1
  22   12   13 ar
  23   12   14 1
  24   13   38 1
  25   14   15 1
  26   14   18 1
  27   15   16 2
  28   15   39 1
  29   16   17 1
  30   17   18 2
  31   17   21 1
  32   18   40 1
  33   19   20 1
  34   20   41 1
  35   20   42 1
  36   20   43 1
  37   21   44 1
  38   21   45 1
  39   21   46 1
  40   22   23 1
  41   22   47 1
  42   22   48 1
  43   23   24 1
  44   23   49 1
  45   23   50 1
  46   24   25 1
  47   24   51 1
  48   24   52 1
  49   25   26 1
  50   25   53 1
  51   26   27 1
  52   26   54 1
  53   26   55 1
  54   27   28 ar
  55   27   29 ar
  56   28   32 ar
  57   29   30 ar
  58   29   56 1
  59   30   31 ar
  60   30   57 1
  61   31   32 ar
  62   31   33 1
  63   32   58 1

#	End of record

