#	Name: ASD05273003
#	Creating user name:	WinNT
#	Creation time:	15. 06. 2019 20:58

#	Modifying user name:	WinNT
#	Modification time:	15. 06. 2019 20:58

#	Program:	/corina/corina34_cracker 3.40 0067  02.08.2006

@<TRIPOS>MOLECULE
ASD05273003
   6    5    0    0    0
SMALL
NO_CHARGES


@<TRIPOS>ATOM
   1 C1            -0.0126     1.0758     0.0080 C.2     
   2 H2             0.0021    -0.0041     0.0020 H       
   3 O3             1.0294     1.6965     0.0013 O.2     
   4 N4            -1.1888     1.7338     0.0171 N.am    
   5 H5            -1.2019     2.7037     0.0224 H       
   6 H6            -2.0222     1.2374     0.0184 H       
@<TRIPOS>BOND
   1    1    2 1
   2    1    3 2
   3    1    4 am
   4    4    5 1
   5    4    6 1

#	End of record

