#	Name: ASD00140003
#	Creating user name:	WinNT
#	Creation time:	15. 06. 2019 18:31

#	Modifying user name:	WinNT
#	Modification time:	15. 06. 2019 18:31

#	Program:	/corina/corina34_cracker 3.40 0067  02.08.2006

@<TRIPOS>MOLECULE
ASD00140003
  42   41    0    0    0
SMALL
NO_CHARGES


@<TRIPOS>ATOM
   1 C1             0.3339     1.5234     0.4926 C.3     
   2 N2             0.0998     0.1291     0.0935 N.4     
   3 C3             0.8048    -0.7696     1.0172 C.3     
   4 C4             0.3668    -0.4715     2.4526 C.3     
   5 O5            -1.0051    -0.8358     2.6173 O.3     
   6 P6            -1.7986    -0.6587     4.0070 P.3     
   7 C7            -1.3404    -0.1570     0.1357 C.3     
   8 C8             0.6009    -0.0802    -1.2714 C.3     
   9 O9            -3.3468    -1.0456     3.7940 O.3     
  10 C10           -4.3348    -0.8926     4.8150 C.3     
  11 C11           -5.6938    -1.3516     4.2826 C.3     
  12 C12           -6.7257    -1.3058     5.4113 C.3     
  13 O13           -7.9850    -1.8523     4.9382 O.3     
  14 C14           -9.0024    -1.8845     5.8133 C.2     
  15 C15          -10.3398    -2.4379     5.3938 C.3     
  16 O16           -1.1523    -1.6249     5.1210 O.3     
  17 O17           -1.6989     0.7480     4.4562 O.2     
  18 O18           -8.8458    -1.4698     6.9373 O.2     
  19 O19           -6.1075    -0.4860     3.2235 O.3     
  20 H20            1.4026     1.7357     0.4614 H       
  21 H21           -0.1892     2.1902    -0.1927 H       
  22 H22           -0.0379     1.6787     1.5054 H       
  23 H23            0.5650    -1.8041     0.7716 H       
  24 H24            1.8798    -0.6143     0.9257 H       
  25 H25            0.9810    -1.0455     3.1465 H       
  26 H26            0.4871     0.5926     2.6556 H       
  27 H27           -1.8419     0.3836    -0.6671 H       
  28 H28           -1.5021    -1.2275     0.0091 H       
  29 H29           -1.7460     0.1606     1.0962 H       
  30 H30            1.6696     0.1321    -1.3026 H       
  31 H31            0.4272    -1.1147    -1.5675 H       
  32 H32            0.0778     0.5866    -1.9568 H       
  33 H33           -4.0604    -1.4970     5.6796 H       
  34 H34           -4.3948     0.1554     5.1086 H       
  35 H35           -5.6112    -2.3715     3.9070 H       
  36 H36           -6.3677    -1.8957     6.2550 H       
  37 H37           -6.8735    -0.2729     5.7268 H       
  38 H38          -10.3703    -3.5082     5.5976 H       
  39 H39          -11.1311    -1.9388     5.9531 H       
  40 H40          -10.4854    -2.2669     4.3272 H       
  41 H41           -1.1829    -2.5640     4.8926 H       
  42 H42           -6.2019     0.4398     3.4864 H       
@<TRIPOS>BOND
   1    1    2 1
   2    1   20 1
   3    1   21 1
   4    1   22 1
   5    2    3 1
   6    2    7 1
   7    2    8 1
   8    3    4 1
   9    3   23 1
  10    3   24 1
  11    4    5 1
  12    4   25 1
  13    4   26 1
  14    5    6 1
  15    6    9 1
  16    6   16 1
  17    6   17 2
  18    7   27 1
  19    7   28 1
  20    7   29 1
  21    8   30 1
  22    8   31 1
  23    8   32 1
  24    9   10 1
  25   10   11 1
  26   10   33 1
  27   10   34 1
  28   11   12 1
  29   11   19 1
  30   11   35 1
  31   12   13 1
  32   12   36 1
  33   12   37 1
  34   13   14 1
  35   14   15 1
  36   14   18 2
  37   15   38 1
  38   15   39 1
  39   15   40 1
  40   16   41 1
  41   19   42 1

#	End of record

