#	Name: ASD02508428
#	Creating user name:	WinNT
#	Creation time:	15. 06. 2019 20:24

#	Modifying user name:	WinNT
#	Modification time:	15. 06. 2019 20:24

#	Program:	/corina/corina34_cracker 3.40 0067  02.08.2006

@<TRIPOS>MOLECULE
ASD02508428
  35   37    0    0    0
SMALL
NO_CHARGES


@<TRIPOS>ATOM
   1 N1            -0.0161     1.3375     0.0094 N.2     
   2 C2             0.0021    -0.0041     0.0020 C.2     
   3 C3             1.2858    -0.4078    -0.0124 C.2     
   4 N4             2.0589     0.7262    -0.0137 N.pl3   
   5 C5             1.2083     1.7874     0.0001 C.2     
   6 C6             3.4524     0.7802    -0.0263 C.ar    
   7 N7             4.0527     1.9594    -0.0258 N.ar    
   8 N8             4.1420    -0.3492    -0.0331 N.ar    
   9 C9             5.4646    -0.3342    -0.0451 C.ar    
  10 C10            6.1266     0.8837    -0.0505 C.ar    
  11 C11            5.3725     2.0468    -0.0375 C.ar    
  12 S12            1.8631    -2.0725    -0.0263 S.o2    
  13 O13            1.8372    -2.4949    -1.3829 O.2     
  14 O14            3.0379    -2.0965     0.7728 O.2     
  15 N15            0.7369    -2.9886     0.7703 N.am    
  16 C16           -0.5492    -3.1319     0.2406 C.ar    
  17 C17           -0.7186    -3.3975    -1.1117 C.ar    
  18 C18           -1.9901    -3.5391    -1.6328 C.ar    
  19 C19           -3.0951    -3.4159    -0.8078 C.ar    
  20 C20           -2.9285    -3.1510     0.5413 C.ar    
  21 C21           -1.6590    -3.0143     1.0675 C.ar    
  22 C22           -4.1332    -3.0174     1.4367 C.3     
  23 F23           -4.3377    -3.5539    -1.3196 F       
  24 H24           -0.8643    -0.6489     0.0071 H       
  25 H25            1.4980     2.8278     0.0026 H       
  26 H26            6.0219    -1.2593    -0.0502 H       
  27 H27            7.2057     0.9255    -0.0603 H       
  28 H28            5.8565     3.0122    -0.0413 H       
  29 H29            0.9694    -3.4259     1.6043 H       
  30 H30            0.1431    -3.4930    -1.7558 H       
  31 H31           -2.1224    -3.7457    -2.6845 H       
  32 H32           -1.5295    -2.8077     2.1197 H       
  33 H33           -4.3912    -3.9939     1.8467 H       
  34 H34           -3.9059    -2.3298     2.2514 H       
  35 H35           -4.9738    -2.6319     0.8598 H       
@<TRIPOS>BOND
   1    1    2 1
   2    1    5 2
   3    2    3 2
   4    2   24 1
   5    3    4 1
   6    3   12 1
   7    4    5 1
   8    4    6 1
   9    5   25 1
  10    6    7 ar
  11    6    8 ar
  12    7   11 ar
  13    8    9 ar
  14    9   10 ar
  15    9   26 1
  16   10   11 ar
  17   10   27 1
  18   11   28 1
  19   12   13 2
  20   12   14 2
  21   12   15 am
  22   15   16 1
  23   15   29 1
  24   16   17 ar
  25   16   21 ar
  26   17   18 ar
  27   17   30 1
  28   18   19 ar
  29   18   31 1
  30   19   20 ar
  31   19   23 1
  32   20   21 ar
  33   20   22 1
  34   21   32 1
  35   22   33 1
  36   22   34 1
  37   22   35 1

#	End of record

