#	Name: ASD02508419
#	Creating user name:	WinNT
#	Creation time:	15. 06. 2019 20:24

#	Modifying user name:	WinNT
#	Modification time:	15. 06. 2019 20:24

#	Program:	/corina/corina34_cracker 3.40 0067  02.08.2006

@<TRIPOS>MOLECULE
ASD02508419
  41   44    0    0    0
SMALL
NO_CHARGES


@<TRIPOS>ATOM
   1 N1            -0.1350     1.4180     0.3351 N.2     
   2 C2            -0.0031     0.0842     0.3917 C.2     
   3 C3             1.3070    -0.2131     0.3050 C.2     
   4 N4             1.9780     0.9780     0.1933 N.pl3   
   5 C5             1.0438     1.9648     0.2163 C.2     
   6 C6             3.3618     1.1453     0.0780 C.ar    
   7 C7             4.0139     2.0687     0.8878 C.ar    
   8 N8             4.0390     0.4198    -0.7965 N.ar    
   9 C9             5.3446     0.5455    -0.9372 C.ar    
  10 C10            6.0564     1.4466    -0.1700 C.ar    
  11 C11            5.3846     2.2238     0.7633 C.ar    
  12 S12            2.0223    -1.8232     0.3302 S.o2    
  13 O13            1.9415    -2.3190    -0.9991 O.2     
  14 O14            3.2459    -1.7075     1.0435 O.2     
  15 N15            1.0347    -2.7841     1.2486 N.am    
  16 C16           -0.2899    -2.9837     0.8702 C.ar    
  17 C17           -0.6290    -3.0604    -0.4647 C.ar    
  18 C18           -1.9508    -3.2597    -0.8497 C.ar    
  19 C19           -2.9432    -3.3838     0.0745 C.ar    
  20 C20           -2.6420    -3.3114     1.4452 C.ar    
  21 C21           -1.2983    -3.1154     1.8484 C.ar    
  22 N22           -3.6020    -3.4309     2.3687 N.ar    
  23 Cl23           3.1221     3.0145     2.0384 Cl      
  24 C24           -3.3279    -3.3647     3.6493 C.ar    
  25 C25           -2.0292    -3.1675     4.1110 C.ar    
  26 C26           -1.0004    -3.0433     3.2196 C.ar    
  27 C27            7.5477     1.5803    -0.3402 C.3     
  28 F28            7.9857     0.6929    -1.3291 F       
  29 F29            7.8583     2.8908    -0.7189 F       
  30 F30            8.1838     1.2813     0.8695 F       
  31 H31           -0.8089    -0.6281     0.4902 H       
  32 H32            1.2435     3.0239     0.1472 H       
  33 H33            5.8637    -0.0645    -1.6617 H       
  34 H34            5.9178     2.9358     1.3757 H       
  35 H35            1.3792    -3.2079     2.0502 H       
  36 H36            0.1388    -2.9645    -1.2181 H       
  37 H37           -2.1944    -3.3167    -1.9003 H       
  38 H38           -3.9630    -3.5376    -0.2463 H       
  39 H39           -4.1307    -3.4654     4.3647 H       
  40 H40           -1.8344    -3.1173     5.1721 H       
  41 H41            0.0131    -2.8900     3.5598 H       
@<TRIPOS>BOND
   1    1    2 1
   2    1    5 2
   3    2    3 2
   4    2   31 1
   5    3    4 1
   6    3   12 1
   7    4    5 1
   8    4    6 1
   9    5   32 1
  10    6    7 ar
  11    6    8 ar
  12    7   23 1
  13    7   11 ar
  14    8    9 ar
  15    9   10 ar
  16    9   33 1
  17   10   11 ar
  18   10   27 1
  19   11   34 1
  20   12   13 2
  21   12   14 2
  22   12   15 am
  23   15   16 1
  24   15   35 1
  25   16   17 ar
  26   16   21 ar
  27   17   18 ar
  28   17   36 1
  29   18   19 ar
  30   18   37 1
  31   19   20 ar
  32   19   38 1
  33   20   21 ar
  34   20   22 ar
  35   21   26 ar
  36   22   24 ar
  37   24   25 ar
  38   24   39 1
  39   25   26 ar
  40   25   40 1
  41   26   41 1
  42   27   28 1
  43   27   29 1
  44   27   30 1

#	End of record

