#	Name: ASD01881100
#	Creating user name:	WinNT
#	Creation time:	15. 06. 2019 19:42

#	Modifying user name:	WinNT
#	Modification time:	15. 06. 2019 19:42

#	Program:	/corina/corina34_cracker 3.40 0067  02.08.2006

@<TRIPOS>MOLECULE
ASD01881100
  41   43    0    0    0
SMALL
NO_CHARGES


@<TRIPOS>ATOM
   1 N1            -0.0158     1.3137     0.0093 N.ar    
   2 C2             0.0021    -0.0041     0.0020 C.ar    
   3 N3             1.1320    -0.6824    -0.0120 N.ar    
   4 C4             2.2982    -0.0569    -0.0197 C.ar    
   5 C5             2.3199     1.3289    -0.0130 C.ar    
   6 C6             1.1113     2.0071     0.0022 C.ar    
   7 C7             3.6263     2.0802    -0.0209 C.3     
   8 O8             4.0271     2.3244    -1.3706 O.3     
   9 C9             1.0811     3.5138     0.0101 C.3     
  10 C10            5.1918     2.9960    -1.5555 C.ar    
  11 C11            5.6406     3.2672    -2.8449 C.ar    
  12 C12            6.8182     3.9468    -3.0316 C.ar    
  13 C13            7.5733     4.3704    -1.9326 C.ar    
  14 C14            7.1183     4.0955    -0.6386 C.ar    
  15 C15            5.9316     3.4169    -0.4577 C.ar    
  16 C16            7.5698     4.3923    -4.2613 C.3     
  17 N17            8.7729     5.0801    -3.7790 N.am    
  18 C18            8.7705     5.0649    -2.4350 C.2     
  19 O19            9.6341     5.5554    -1.7336 O.2     
  20 C20            3.5851    -0.8408    -0.0352 C.3     
  21 Cl21           8.0426     4.6130     0.7367 Cl      
  22 C22            9.4462     7.1447    -4.9040 C.3     
  23 C23            9.8064     5.6844    -4.6234 C.3     
  24 H24           -0.9341    -0.5425     0.0081 H       
  25 H25            3.5023     3.0302     0.4989 H       
  26 H26            4.3895     1.4872     0.4831 H       
  27 H27            1.0639     3.8822    -1.0156 H       
  28 H28            0.1891     3.8566     0.5344 H       
  29 H29            1.9686     3.8923     0.5173 H       
  30 H30            5.0627     2.9428    -3.6976 H       
  31 H31            5.5800     3.2049     0.5412 H       
  32 H32            7.8486     3.5277    -4.8638 H       
  33 H33            6.9568     5.0765    -4.8479 H       
  34 H34            3.8860    -1.0250    -1.0666 H       
  35 H35            4.3631    -0.2722     0.4741 H       
  36 H36            3.4371    -1.7923     0.4755 H       
  37 H37           10.2151     7.5943    -5.5322 H       
  38 H38            8.4856     7.1898    -5.4170 H       
  39 H39            9.3813     7.6902    -3.9626 H       
  40 H40           10.7670     5.6392    -4.1103 H       
  41 H41            9.8713     5.1388    -5.5648 H       
@<TRIPOS>BOND
   1    1    2 ar
   2    1    6 ar
   3    2    3 ar
   4    2   24 1
   5    3    4 ar
   6    4    5 ar
   7    4   20 1
   8    5    6 ar
   9    5    7 1
  10    6    9 1
  11    7    8 1
  12    7   25 1
  13    7   26 1
  14    8   10 1
  15    9   27 1
  16    9   28 1
  17    9   29 1
  18   10   11 ar
  19   10   15 ar
  20   11   12 ar
  21   11   30 1
  22   12   13 ar
  23   12   16 1
  24   13   14 ar
  25   13   18 1
  26   14   15 ar
  27   14   21 1
  28   15   31 1
  29   16   17 1
  30   16   32 1
  31   16   33 1
  32   17   18 am
  33   17   23 1
  34   18   19 2
  35   20   34 1
  36   20   35 1
  37   20   36 1
  38   22   23 1
  39   22   37 1
  40   22   38 1
  41   22   39 1
  42   23   40 1
  43   23   41 1

#	End of record

