#	Name: ASD01812568
#	Creating user name:	WinNT
#	Creation time:	15. 06. 2019 19:28

#	Modifying user name:	WinNT
#	Modification time:	15. 06. 2019 19:28

#	Program:	/corina/corina34_cracker 3.40 0067  02.08.2006

@<TRIPOS>MOLECULE
ASD01812568
  56   60    0    0    0
SMALL
NO_CHARGES


@<TRIPOS>ATOM
   1 C1            -0.0225     1.8097     0.0120 C.3     
   2 S2             0.0021    -0.0041     0.0020 S.3     
   3 C3             0.8516    -0.3807    -1.4950 C.ar    
   4 C4             1.0614    -1.7088    -1.8536 C.ar    
   5 C5             1.7297    -1.9900    -3.0314 C.ar    
   6 C6             2.1675    -0.9300    -3.8144 C.ar    
   7 C7             2.8994    -1.1893    -5.1060 C.3     
   8 C8             1.9068    -1.2818    -6.2361 C.ar    
   9 C9             1.4393    -2.4942    -6.6269 C.ar    
  10 C10            0.5139    -2.6006    -7.6774 C.ar    
  11 C11           -0.0059    -3.9140    -8.1036 C.2     
  12 O12            0.5597    -4.9470    -7.7993 O.2     
  13 N13           -1.1379    -3.9239    -8.8466 N.am    
  14 C14           -1.8140    -2.6615    -9.1472 C.3     
  15 N15           -0.8450    -1.5882    -9.3780 N.3     
  16 C16            0.0575    -1.4609    -8.3442 C.ar    
  17 C17            0.5346    -0.1945    -7.9447 C.ar    
  18 C18            0.1028     0.9790    -8.5804 C.ar    
  19 C19            0.5855     2.1858    -8.1709 C.ar    
  20 C20            1.5033     2.2716    -7.1278 C.ar    
  21 C21            1.9436     1.1524    -6.4878 C.ar    
  22 C22            1.4638    -0.1080    -6.8785 C.ar    
  23 C23           -1.6815    -5.1893    -9.3463 C.3     
  24 H24           -2.5886    -4.9956    -9.9188 H       
  25 C25           -0.6454    -5.8733   -10.2435 C.3     
  26 C26           -1.1909    -7.2300   -10.6969 C.3     
  27 O27           -1.5005    -8.0248    -9.5503 O.3     
  28 C28           -2.4982    -7.4572    -8.6992 C.3     
  29 C29           -2.0074    -6.1088    -8.1654 C.3     
  30 H30           -1.1111    -6.2610    -7.5640 H       
  31 O31           -3.0271    -5.5114    -7.3622 O.3     
  32 C32            1.9251     0.3640    -3.3980 C.ar    
  33 N33            1.2802     0.6030    -2.2722 N.ar    
  34 H34            1.0001     2.1870     0.0043 H       
  35 H35           -0.5497     2.1708    -0.8711 H       
  36 H36           -0.5327     2.1613     0.9088 H       
  37 H37            0.7075    -2.5091    -1.2206 H       
  38 H38            1.9073    -3.0110    -3.3352 H       
  39 H39            3.5953    -0.3730    -5.2995 H       
  40 H40            3.4509    -2.1264    -5.0292 H       
  41 H41            1.7829    -3.3866    -6.1249 H       
  42 H42           -2.4274    -2.7877   -10.0394 H       
  43 H43           -2.4552    -2.3904    -8.3085 H       
  44 H44           -0.3700    -1.7133   -10.2593 H       
  45 H45           -0.6089     0.9262    -9.3910 H       
  46 H46            0.2518     3.0877    -8.6625 H       
  47 H47            1.8721     3.2394    -6.8217 H       
  48 H48            2.6558     1.2346    -5.6802 H       
  49 H49           -0.4501    -5.2493   -11.1156 H       
  50 H50            0.2792    -6.0206    -9.6854 H       
  51 H51           -2.0934    -7.0794   -11.2892 H       
  52 H52           -0.4404    -7.7401   -11.3009 H       
  53 H53           -3.4179    -7.3096    -9.2654 H       
  54 H54           -2.6896    -8.1310    -7.8640 H       
  55 H55           -3.2837    -6.0406    -6.5945 H       
  56 H56            2.2640     1.1912    -4.0041 H       
@<TRIPOS>BOND
   1    1    2 1
   2    1   34 1
   3    1   35 1
   4    1   36 1
   5    2    3 1
   6    3   33 ar
   7    3    4 ar
   8    4    5 ar
   9    4   37 1
  10    5    6 ar
  11    5   38 1
  12    6    7 1
  13    6   32 ar
  14    7    8 1
  15    7   39 1
  16    7   40 1
  17    8   22 ar
  18    8    9 ar
  19    9   10 ar
  20    9   41 1
  21   10   16 ar
  22   10   11 1
  23   11   12 2
  24   11   13 am
  25   13   14 1
  26   13   23 1
  27   14   15 1
  28   14   42 1
  29   14   43 1
  30   15   16 1
  31   15   44 1
  32   16   17 ar
  33   17   22 ar
  34   17   18 ar
  35   18   19 ar
  36   18   45 1
  37   19   20 ar
  38   19   46 1
  39   20   21 ar
  40   20   47 1
  41   21   22 ar
  42   21   48 1
  43   23   24 1
  44   23   29 1
  45   23   25 1
  46   25   26 1
  47   25   49 1
  48   25   50 1
  49   26   27 1
  50   26   51 1
  51   26   52 1
  52   27   28 1
  53   28   29 1
  54   28   53 1
  55   28   54 1
  56   29   30 1
  57   29   31 1
  58   31   55 1
  59   32   33 ar
  60   32   56 1

#	End of record

