#	Name: ASD01148764
#	Creating user name:	WinNT
#	Creation time:	15. 06. 2019 19:03

#	Modifying user name:	WinNT
#	Modification time:	15. 06. 2019 19:03

#	Program:	/corina/corina34_cracker 3.40 0067  02.08.2006

@<TRIPOS>MOLECULE
ASD01148764
  53   55    0    0    0
SMALL
NO_CHARGES


@<TRIPOS>ATOM
   1 N1            -0.0155     1.3412     0.0827 N.pl3   
   2 C2             0.0020     0.0054    -0.1104 C.2     
   3 C3             1.3175    -0.4067    -0.1563 C.2     
   4 C4             2.1209     0.7506     0.0195 C.2     
   5 C5             1.2771     1.8041     0.1631 C.2     
   6 C6             1.7971    -1.7843    -0.3498 C.2     
   7 O7             1.0001    -2.6914    -0.4886 O.2     
   8 O8             3.1203    -2.0402    -0.3731 O.3     
   9 C9            -1.2073    -0.8828    -0.2507 C.3     
  10 C10           -1.1681     2.1319     0.1797 C.ar    
  11 C11           -2.0095     2.0035     1.2768 C.ar    
  12 C12           -3.1447     2.7848     1.3698 C.ar    
  13 C13           -3.4439     3.6937     0.3716 C.ar    
  14 C14           -2.6082     3.8236    -0.7224 C.ar    
  15 C15           -1.4682     3.0496    -0.8181 C.ar    
  16 S16           -4.8933     4.6881     0.4937 S.o2    
  17 O17           -5.2281     5.0740    -0.8323 O.2     
  18 O18           -5.7878     3.9903     1.3493 O.2     
  19 N19           -4.4698     6.0760     1.2917 N.am    
  20 C20           -3.9984     7.2400     0.5373 C.3     
  21 C21           -4.5667     6.1398     2.7521 C.3     
  22 C22            1.6797     3.2120     0.3702 C.ar    
  23 C23            0.7824     4.1219     0.9310 C.ar    
  24 C24            1.1635     5.4339     1.1217 C.ar    
  25 C25            2.4335     5.8486     0.7580 C.ar    
  26 C26            3.3280     4.9505     0.2007 C.ar    
  27 C27            2.9602     3.6345     0.0109 C.ar    
  28 Cl28           2.9061     7.5013     1.0010 Cl      
  29 C29            3.5211    -3.4221    -0.5681 C.3     
  30 C30            5.0482    -3.5154    -0.5659 C.3     
  31 H31            3.2002     0.7861     0.0359 H       
  32 H32           -1.4889    -0.9498    -1.3015 H       
  33 H33           -0.9729    -1.8781     0.1269 H       
  34 H34           -2.0348    -0.4628     0.3212 H       
  35 H35           -1.7767     1.2933     2.0564 H       
  36 H36           -3.7995     2.6854     2.2229 H       
  37 H37           -2.8449     4.5339    -1.5007 H       
  38 H38           -0.8135     3.1546    -1.6706 H       
  39 H39           -4.8480     7.8689     0.2713 H       
  40 H40           -3.3008     7.8115     1.1495 H       
  41 H41           -3.4957     6.9055    -0.3701 H       
  42 H42           -3.9250     5.3766     3.1925 H       
  43 H43           -4.2480     7.1243     3.0947 H       
  44 H44           -5.5990     5.9660     3.0558 H       
  45 H45           -0.2086     3.7996     1.2147 H       
  46 H46            0.4698     6.1390     1.5553 H       
  47 H47            4.3171     5.2797    -0.0814 H       
  48 H48            3.6603     2.9337    -0.4194 H       
  49 H49            3.1185    -4.0345     0.2388 H       
  50 H50            3.1365    -3.7807    -1.5229 H       
  51 H51            5.4508    -2.9030    -1.3728 H       
  52 H52            5.4328    -3.1568     0.3889 H       
  53 H53            5.3491    -4.5528    -0.7122 H       
@<TRIPOS>BOND
   1    1    2 1
   2    1    5 1
   3    1   10 1
   4    2    3 2
   5    2    9 1
   6    3    4 1
   7    3    6 1
   8    4    5 2
   9    4   31 1
  10    5   22 1
  11    6    7 2
  12    6    8 1
  13    8   29 1
  14    9   32 1
  15    9   33 1
  16    9   34 1
  17   10   11 ar
  18   10   15 ar
  19   11   12 ar
  20   11   35 1
  21   12   13 ar
  22   12   36 1
  23   13   14 ar
  24   13   16 1
  25   14   15 ar
  26   14   37 1
  27   15   38 1
  28   16   17 2
  29   16   18 2
  30   16   19 am
  31   19   20 1
  32   19   21 1
  33   20   39 1
  34   20   40 1
  35   20   41 1
  36   21   42 1
  37   21   43 1
  38   21   44 1
  39   22   23 ar
  40   22   27 ar
  41   23   24 ar
  42   23   45 1
  43   24   25 ar
  44   24   46 1
  45   25   26 ar
  46   25   28 1
  47   26   27 ar
  48   26   47 1
  49   27   48 1
  50   29   30 1
  51   29   49 1
  52   29   50 1
  53   30   51 1
  54   30   52 1
  55   30   53 1

#	End of record

