#	Name: ASD05430433
#	Creating user name:	WinNT
#	Creation time:	15. 06. 2019 21:00

#	Modifying user name:	WinNT
#	Modification time:	15. 06. 2019 21:00

#	Program:	/corina/corina34_cracker 3.40 0067  02.08.2006

@<TRIPOS>MOLECULE
ASD05430433
  61   65    0    0    0
SMALL
NO_CHARGES


@<TRIPOS>ATOM
   1 C1            -0.0168     1.3905     0.0097 C.ar    
   2 C2             0.0021    -0.0041     0.0020 C.ar    
   3 C3            -1.1894    -0.7183     0.0100 C.ar    
   4 C4            -2.3954    -0.0526     0.0256 C.ar    
   5 C5            -2.4222     1.3461     0.0333 C.ar    
   6 C6            -1.2227     2.0650     0.0306 C.ar    
   7 C7            -4.8635     1.3651     0.0568 C.2     
   8 C8            -3.7094     2.0591     0.0495 C.2     
   9 O9             1.1512     2.0862     0.0023 O.3     
  10 C10            1.6010    -1.7066     0.8210 C.2     
  11 N11            1.2256    -0.6862    -0.0143 N.pl3   
  12 C12            2.8468    -2.0682     0.4595 C.2     
  13 N13            3.2264    -1.2934    -0.5675 N.2     
  14 C14            2.2641    -0.4617    -0.8606 C.2     
  15 C15            3.6721    -3.1549     1.0989 C.3     
  16 C16           -7.6952     0.2142    -0.3430 C.2     
  17 N17           -7.3737     1.4430     0.0808 N.am    
  18 C18           -8.3547     2.4279     0.5937 C.3     
  19 C19           -9.6374     2.2320    -0.2197 C.3     
  20 C20          -10.1245     0.7986    -0.0133 C.3     
  21 C21           -9.1178    -0.2264    -0.5055 C.3     
  22 C22           -8.5915     2.2912     2.0757 C.ar    
  23 C23           -7.5845     1.8160     2.8951 C.ar    
  24 C24           -9.8135     2.6464     2.6157 C.ar    
  25 C25          -10.0315     2.5223     3.9747 C.ar    
  26 C26           -9.0254     2.0415     4.7955 C.ar    
  27 C27           -7.8002     1.6906     4.2543 C.ar    
  28 F28           -9.2373     1.9198     6.1242 F       
  29 C29           -7.6723     3.7576     0.2128 C.3     
  30 N30           -6.2546     3.3745     0.0814 N.2     
  31 C31           -6.1469     2.0760     0.0729 C.2     
  32 O32           -6.8056    -0.5659    -0.6086 O.2     
  33 C33            1.0571     3.5121     0.0108 C.3     
  34 C34           -9.3806    -0.5001    -1.9877 C.3     
  35 H35           -1.1703    -1.7981     0.0037 H       
  36 H36           -3.3202    -0.6104     0.0314 H       
  37 H37           -1.2388     3.1449     0.0365 H       
  38 H38           -4.8443     0.2853     0.0508 H       
  39 H39           -3.7286     3.1389     0.0555 H       
  40 H40            1.0124    -2.1349     1.6188 H       
  41 H41            2.2893     0.2805    -1.6448 H       
  42 H42            3.4809    -4.1015     0.5932 H       
  43 H43            4.7297    -2.9051     1.0146 H       
  44 H44            3.4026    -3.2443     2.1513 H       
  45 H45          -10.3998     2.9317     0.1228 H       
  46 H46           -9.4313     2.4012    -1.2766 H       
  47 H47          -10.3042     0.6356     1.0494 H       
  48 H48          -11.0612     0.6621    -0.5537 H       
  49 H49           -9.2624    -1.1532     0.0496 H       
  50 H50           -6.6289     1.5423     2.4727 H       
  51 H51          -10.5981     3.0214     1.9752 H       
  52 H52          -10.9860     2.8006     4.3964 H       
  53 H53           -7.0149     1.3151     4.8936 H       
  54 H54           -8.0599     4.1326    -0.7345 H       
  55 H55           -7.8003     4.4973     1.0031 H       
  56 H56            2.0585     3.9424     0.0036 H       
  57 H57            0.5119     3.8455    -0.8722 H       
  58 H58            0.5289     3.8360     0.9076 H       
  59 H59           -8.7082    -1.2836    -2.3373 H       
  60 H60          -10.4135    -0.8219    -2.1202 H       
  61 H61           -9.2072     0.4102    -2.5616 H       
@<TRIPOS>BOND
   1    1    2 ar
   2    1    9 1
   3    1    6 ar
   4    2    3 ar
   5    2   11 1
   6    3    4 ar
   7    3   35 1
   8    4    5 ar
   9    4   36 1
  10    5    6 ar
  11    5    8 1
  12    6   37 1
  13    7    8 2
  14    7   31 1
  15    7   38 1
  16    8   39 1
  17    9   33 1
  18   10   11 1
  19   10   12 2
  20   10   40 1
  21   11   14 1
  22   12   13 1
  23   12   15 1
  24   13   14 2
  25   14   41 1
  26   15   42 1
  27   15   43 1
  28   15   44 1
  29   16   17 am
  30   16   21 1
  31   16   32 2
  32   17   18 1
  33   17   31 1
  34   18   19 1
  35   18   22 1
  36   18   29 1
  37   19   20 1
  38   19   45 1
  39   19   46 1
  40   20   21 1
  41   20   47 1
  42   20   48 1
  43   21   34 1
  44   21   49 1
  45   22   23 ar
  46   22   24 ar
  47   23   27 ar
  48   23   50 1
  49   24   25 ar
  50   24   51 1
  51   25   26 ar
  52   25   52 1
  53   26   27 ar
  54   26   28 1
  55   27   53 1
  56   29   30 1
  57   29   54 1
  58   29   55 1
  59   30   31 2
  60   33   56 1
  61   33   57 1
  62   33   58 1
  63   34   59 1
  64   34   60 1
  65   34   61 1

#	End of record

