#	Name: ASD02039202
#	Creating user name:	WinNT
#	Creation time:	15. 06. 2019 20:17

#	Modifying user name:	WinNT
#	Modification time:	15. 06. 2019 20:17

#	Program:	/corina/corina34_cracker 3.40 0067  02.08.2006

@<TRIPOS>MOLECULE
ASD02039202
  49   52    0    0    0
SMALL
NO_CHARGES


@<TRIPOS>ATOM
   1 N1             0.0020     1.2623     0.3698 N.2     
   2 C2             0.0063    -0.0135     0.0892 C.2     
   3 N3             1.2922    -0.3754    -0.1073 N.2     
   4 C4             1.9960     0.7158     0.0683 C.2     
   5 O5             1.1351     1.6952     0.3618 O.3     
   6 C6             3.4937     0.8426    -0.0397 C.3     
   7 N7            -1.1052    -0.8435     0.0085 N.pl3   
   8 C8            -2.3896    -0.3053     0.1291 C.ar    
   9 C9            -2.6360     1.0026    -0.2681 C.ar    
  10 C10           -3.9081     1.5316    -0.1477 C.ar    
  11 C11           -4.9348     0.7576     0.3683 C.ar    
  12 C12           -4.6905    -0.5440     0.7643 C.ar    
  13 C13           -3.4231    -1.0794     0.6410 C.ar    
  14 C14           -6.3202     1.3360     0.4986 C.3     
  15 C15            3.8676     1.1882    -1.4581 C.ar    
  16 C16            3.9592     2.5130    -1.8446 C.ar    
  17 C17            4.2947     2.8322    -3.1454 C.ar    
  18 C18            4.5405     1.8225    -4.0666 C.ar    
  19 C19            4.4617     0.4940    -3.6716 C.ar    
  20 C20            4.1241     0.1805    -2.3692 C.ar    
  21 F21           -4.1497     2.8037    -0.5331 F       
  22 N22            4.8783     2.1433    -5.3842 N.am    
  23 C23            4.8524     1.2070    -6.3482 C.2     
  24 C24            4.3383    -0.1784    -6.0578 C.3     
  25 C25            4.7699    -0.6060    -4.6545 C.3     
  26 O26            5.2463     1.4805    -7.4622 O.2     
  27 C27            6.2736    -0.8885    -4.6482 C.3     
  28 C28            4.0130    -1.8736    -4.2531 C.3     
  29 H29            3.8410     1.6297     0.6297 H       
  30 H30            3.9594    -0.1027     0.2388 H       
  31 H31           -0.9898    -1.7964    -0.1316 H       
  32 H32           -1.8353     1.6057    -0.6700 H       
  33 H33           -5.4928    -1.1448     1.1666 H       
  34 H34           -3.2338    -2.0965     0.9509 H       
  35 H35           -6.8811     1.1453    -0.4163 H       
  36 H36           -6.8307     0.8700     1.3415 H       
  37 H37           -6.2510     2.4110     0.6650 H       
  38 H38            3.7676     3.2985    -1.1286 H       
  39 H39            4.3656     3.8670    -3.4465 H       
  40 H40            4.0521    -0.8532    -2.0646 H       
  41 H41            5.1341     3.0524    -5.6057 H       
  42 H42            3.2501    -0.1816    -6.1193 H       
  43 H43            4.7439    -0.8764    -6.7902 H       
  44 H44            6.8140     0.0133    -4.9359 H       
  45 H45            6.5819    -1.1934    -3.6482 H       
  46 H46            6.4962    -1.6869    -5.3562 H       
  47 H47            4.2381    -2.6709    -4.9615 H       
  48 H48            4.3202    -2.1789    -3.2529 H       
  49 H49            2.9414    -1.6742    -4.2590 H       
@<TRIPOS>BOND
   1    1    2 2
   2    1    5 1
   3    2    3 1
   4    2    7 1
   5    3    4 2
   6    4    5 1
   7    4    6 1
   8    6   15 1
   9    6   29 1
  10    6   30 1
  11    7    8 1
  12    7   31 1
  13    8    9 ar
  14    8   13 ar
  15    9   10 ar
  16    9   32 1
  17   10   11 ar
  18   10   21 1
  19   11   12 ar
  20   11   14 1
  21   12   13 ar
  22   12   33 1
  23   13   34 1
  24   14   35 1
  25   14   36 1
  26   14   37 1
  27   15   16 ar
  28   15   20 ar
  29   16   17 ar
  30   16   38 1
  31   17   18 ar
  32   17   39 1
  33   18   19 ar
  34   18   22 1
  35   19   20 ar
  36   19   25 1
  37   20   40 1
  38   22   23 am
  39   22   41 1
  40   23   24 1
  41   23   26 2
  42   24   25 1
  43   24   42 1
  44   24   43 1
  45   25   27 1
  46   25   28 1
  47   27   44 1
  48   27   45 1
  49   27   46 1
  50   28   47 1
  51   28   48 1
  52   28   49 1

#	End of record

