#	Name: ASD02440054
#	Creating user name:	WinNT
#	Creation time:	15. 06. 2019 20:21

#	Modifying user name:	WinNT
#	Modification time:	15. 06. 2019 20:21

#	Program:	/corina/corina34_cracker 3.40 0067  02.08.2006

@<TRIPOS>MOLECULE
ASD02440054
  59   63    0    0    0
SMALL
NO_CHARGES


@<TRIPOS>ATOM
   1 N1            -0.0667     1.2487     0.0476 N.am    
   2 C2            -0.0267    -0.1132    -0.0700 C.2     
   3 S3             1.6846    -0.5691    -0.1303 S.3     
   4 C4             2.2849     1.0948     0.0054 C.2     
   5 C5             1.0737     1.9168     0.0910 C.2     
   6 N6            -1.0577    -0.9264    -0.1268 N.2     
   7 C7            -1.3486     1.9545     0.1181 C.3     
   8 C8            -1.7774     2.0746     1.5578 C.ar    
   9 O9             1.1151     3.1289     0.1944 O.2     
  10 C10            3.5760     1.5132     0.0255 C.2     
  11 C11            4.6648     0.5312     0.1071 C.ar    
  12 C12            4.3863    -0.8012     0.4361 C.ar    
  13 C13            5.4107    -1.7177     0.5108 C.ar    
  14 C14            6.7200    -1.3225     0.2603 C.ar    
  15 C15            7.0023    -0.0009    -0.0663 C.ar    
  16 C16            5.9848     0.9226    -0.1494 C.ar    
  17 C17           -2.9461     1.1839     3.4488 C.ar    
  18 C18           -2.5497     1.0801     2.1316 C.ar    
  19 C19           -1.3923     3.1761     2.3015 C.ar    
  20 C20           -1.7814     3.2923     3.6199 C.ar    
  21 C21           -2.5655     2.2952     4.2035 C.ar    
  22 C22           -2.9866     2.4134     5.6145 C.2     
  23 O23           -3.6656     1.5426     6.1207 O.2     
  24 O24           -2.6177     3.4869     6.3399 O.3     
  25 O25            7.7265    -2.2305     0.3354 O.3     
  26 C26            7.8007    -3.1820    -0.6318 C.ar    
  27 C27            6.9444    -3.1326    -1.7226 C.ar    
  28 C28            7.0223    -4.1009    -2.7046 C.ar    
  29 C29            7.9522    -5.1190    -2.6012 C.ar    
  30 C30            8.8063    -5.1709    -1.5151 C.ar    
  31 C31            8.7368    -4.2016    -0.5333 C.ar    
  32 C32           -0.8596    -2.2751    -0.2453 C.ar    
  33 C33           -1.5921    -3.1640     0.5448 C.ar    
  34 C34           -1.3876    -4.5223     0.4197 C.ar    
  35 C35           -0.4592    -5.0050    -0.4859 C.ar    
  36 C36            0.2700    -4.1302    -1.2718 C.ar    
  37 C37            0.0721    -2.7696    -1.1611 C.ar    
  38 H38           -1.2394     2.9498    -0.3127 H       
  39 H39           -2.1012     1.3976    -0.4399 H       
  40 H40            3.8026     2.5682    -0.0186 H       
  41 H41            3.3696    -1.1091     0.6312 H       
  42 H42            5.1971    -2.7454     0.7648 H       
  43 H43            8.0211     0.3008    -0.2592 H       
  44 H44            6.2051     1.9490    -0.4031 H       
  45 H45           -3.5494     0.4073     3.8952 H       
  46 H46           -2.8431     0.2209     1.5467 H       
  47 H47           -0.7855     3.9463     1.8489 H       
  48 H48           -1.4798     4.1524     4.1993 H       
  49 H49           -2.9174     3.5199     7.2588 H       
  50 H50            6.2175    -2.3380    -1.8035 H       
  51 H51            6.3561    -4.0629    -3.5538 H       
  52 H52            8.0112    -5.8753    -3.3699 H       
  53 H53            9.5315    -5.9673    -1.4365 H       
  54 H54            9.4072    -4.2400     0.3126 H       
  55 H55           -2.3167    -2.7886     1.2522 H       
  56 H56           -1.9530    -5.2108     1.0302 H       
  57 H57           -0.3029    -6.0695    -0.5795 H       
  58 H58            0.9929    -4.5138    -1.9766 H       
  59 H59            0.6417    -2.0880    -1.7754 H       
@<TRIPOS>BOND
   1    1    2 1
   2    1    5 am
   3    1    7 1
   4    2    3 1
   5    2    6 2
   6    3    4 1
   7    4    5 1
   8    4   10 2
   9    5    9 2
  10    6   32 1
  11    7    8 1
  12    7   38 1
  13    7   39 1
  14    8   19 ar
  15    8   18 ar
  16   10   11 1
  17   10   40 1
  18   11   12 ar
  19   11   16 ar
  20   12   13 ar
  21   12   41 1
  22   13   14 ar
  23   13   42 1
  24   14   15 ar
  25   14   25 1
  26   15   16 ar
  27   15   43 1
  28   16   44 1
  29   17   18 ar
  30   17   21 ar
  31   17   45 1
  32   18   46 1
  33   19   20 ar
  34   19   47 1
  35   20   21 ar
  36   20   48 1
  37   21   22 1
  38   22   23 2
  39   22   24 1
  40   24   49 1
  41   25   26 1
  42   26   27 ar
  43   26   31 ar
  44   27   28 ar
  45   27   50 1
  46   28   29 ar
  47   28   51 1
  48   29   30 ar
  49   29   52 1
  50   30   31 ar
  51   30   53 1
  52   31   54 1
  53   32   33 ar
  54   32   37 ar
  55   33   34 ar
  56   33   55 1
  57   34   35 ar
  58   34   56 1
  59   35   36 ar
  60   35   57 1
  61   36   37 ar
  62   36   58 1
  63   37   59 1

#	End of record

