#	Name: ASD01882410
#	Creating user name:	WinNT
#	Creation time:	15. 06. 2019 19:44

#	Modifying user name:	WinNT
#	Modification time:	15. 06. 2019 19:44

#	Program:	/corina/corina34_cracker 3.40 0067  02.08.2006

@<TRIPOS>MOLECULE
ASD01882410
  55   59    0    0    0
SMALL
NO_CHARGES


@<TRIPOS>ATOM
   1 C1             0.6246     1.3755    -1.0723 C.2     
   2 C2             0.6040    -0.0281    -1.0061 C.2     
   3 C3             1.1541    -0.6525     0.0803 C.2     
   4 C4             1.7304     0.1215     1.1111 C.2     
   5 C5             1.7392     1.4661     1.0270 C.2     
   6 N6             1.1933     2.0983    -0.0519 N.pl3   
   7 N7             0.4507     3.4440    -1.5612 N.2     
   8 N8             0.1919     2.2508    -1.9670 N.2     
   9 C9             1.0586     3.4090    -0.4048 C.2     
  10 C10           -0.0166    -0.8354    -2.1170 C.3     
  11 F11           -1.3517    -1.1113    -1.8033 F       
  12 F12            0.0413    -0.1079    -3.3106 F       
  13 F13            0.6847    -2.0364    -2.2685 F       
  14 N14            1.1453    -2.0412     0.1687 N.pl3   
  15 C15            2.4018    -2.8018     0.1304 C.3     
  16 C16            2.4615    -3.7174     1.3572 C.3     
  17 C17            1.2022    -4.5859     1.4023 C.3     
  18 C18           -0.0328    -3.6907     1.5274 C.3     
  19 C19           -0.1203    -2.7744     0.3082 C.3     
  20 C20            1.1057    -5.4109     0.1174 C.3     
  21 C21            1.2732    -5.5119     2.5891 C.ar    
  22 C22            0.2394    -6.3990     2.8384 C.ar    
  23 C23            0.3060    -7.2490     3.9290 C.ar    
  24 C24            1.4040    -7.2116     4.7677 C.ar    
  25 C25            2.4351    -6.3255     4.5181 C.ar    
  26 C26            2.3725    -5.4802     3.4257 C.ar    
  27 F27           -0.8335    -6.4344     2.0182 F       
  28 C28            1.5270     4.5992     0.3921 C.3     
  29 C29            2.9600     4.9516    -0.0120 C.3     
  30 C30            3.5782     6.2092     0.6022 C.3     
  31 C31            4.0468     4.8257     1.0575 C.3     
  32 H32            2.1656    -0.3664     1.9708 H       
  33 H33            2.1822     2.0490     1.8210 H       
  34 H34            2.4367    -3.4043    -0.7772 H       
  35 H35            3.2464    -2.1131     0.1471 H       
  36 H36            3.3420    -4.3565     1.2917 H       
  37 H37            2.5178    -3.1111     2.2613 H       
  38 H38           -0.9275    -4.3107     1.5830 H       
  39 H39            0.0471    -3.0846     2.4298 H       
  40 H40           -0.9392    -2.0676     0.4421 H       
  41 H41           -0.2952    -3.3746    -0.5847 H       
  42 H42            1.9846    -6.0495     0.0288 H       
  43 H43            0.2088    -6.0295     0.1494 H       
  44 H44            1.0549    -4.7414    -0.7413 H       
  45 H45           -0.4998    -7.9410     4.1246 H       
  46 H46            1.4562    -7.8747     5.6186 H       
  47 H47            3.2923    -6.2964     5.1744 H       
  48 H48            3.1811    -4.7919     3.2287 H       
  49 H49            0.8741     5.4492     0.1936 H       
  50 H50            1.4978     4.3591     1.4550 H       
  51 H51            3.2327     4.7065    -1.0385 H       
  52 H52            4.2580     6.7912    -0.0201 H       
  53 H53            2.9640     6.7855     1.2941 H       
  54 H54            3.7410     4.4919     2.0490 H       
  55 H55            5.0349     4.4976     0.7347 H       
@<TRIPOS>BOND
   1    1    2 1
   2    1    6 1
   3    1    8 2
   4    2    3 2
   5    2   10 1
   6    3    4 1
   7    3   14 1
   8    4    5 2
   9    4   32 1
  10    5    6 1
  11    5   33 1
  12    6    9 1
  13    7    8 1
  14    7    9 2
  15    9   28 1
  16   10   11 1
  17   10   12 1
  18   10   13 1
  19   14   15 1
  20   14   19 1
  21   15   16 1
  22   15   34 1
  23   15   35 1
  24   16   17 1
  25   16   36 1
  26   16   37 1
  27   17   18 1
  28   17   20 1
  29   17   21 1
  30   18   19 1
  31   18   38 1
  32   18   39 1
  33   19   40 1
  34   19   41 1
  35   20   42 1
  36   20   43 1
  37   20   44 1
  38   21   22 ar
  39   21   26 ar
  40   22   23 ar
  41   22   27 1
  42   23   24 ar
  43   23   45 1
  44   24   25 ar
  45   24   46 1
  46   25   26 ar
  47   25   47 1
  48   26   48 1
  49   28   29 1
  50   28   49 1
  51   28   50 1
  52   29   30 1
  53   29   31 1
  54   29   51 1
  55   30   31 1
  56   30   52 1
  57   30   53 1
  58   31   54 1
  59   31   55 1

#	End of record

