#	Name: ASD01420112
#	Creating user name:	WinNT
#	Creation time:	15. 06. 2019 19:20

#	Modifying user name:	WinNT
#	Modification time:	15. 06. 2019 19:20

#	Program:	/corina/corina34_cracker 3.40 0067  02.08.2006

@<TRIPOS>MOLECULE
ASD01420112
  57   60    0    0    0
SMALL
NO_CHARGES


@<TRIPOS>ATOM
   1 O1             1.6268     0.9329     0.9353 O.3     
   2 C2             1.3122    -0.3120     0.5213 C.ar    
   3 C3             0.5171    -0.1852    -0.6325 C.ar    
   4 C4             0.3873     1.2554    -0.8673 C.2     
   5 C5             1.0856     1.8613     0.1224 C.2     
   6 C6             1.6189    -1.5785     1.0062 C.ar    
   7 C7             1.1476    -2.6988     0.3617 C.ar    
   8 C8             0.3562    -2.5796    -0.7872 C.ar    
   9 C9             0.0396    -1.3205    -1.2848 C.ar    
  10 C10            1.2326     3.3226     0.2861 C.ar    
  11 C11            0.1137     4.1530     0.1965 C.ar    
  12 C12            0.2550     5.5155     0.3503 C.ar    
  13 C13            1.5080     6.0626     0.5935 C.ar    
  14 C14            2.6234     5.2401     0.6832 C.ar    
  15 C15            2.4898     3.8760     0.5364 C.ar    
  16 O16            1.6432     7.4061     0.7435 O.3     
  17 C17           -0.1432    -3.7918    -1.4701 C.2     
  18 C18           -0.3695     1.9269    -1.9843 C.3     
  19 C19            2.9603     7.9020     0.9915 C.3     
  20 C20            4.3372     9.9552     1.3346 C.3     
  21 C21            2.9347     9.4326     1.0088 C.3     
  22 O22            3.4206     7.4202     2.2557 O.3     
  23 C23            4.7451     7.8382     2.5921 C.3     
  24 C24            4.7913     9.3662     2.6738 C.3     
  25 O25            2.5300     9.9179    -0.2728 O.3     
  26 C26            5.1398     7.2428     3.9451 C.3     
  27 O27            6.1273     9.7894     2.9531 O.3     
  28 O28            4.3069    11.3810     1.4253 O.3     
  29 O29            5.2085     5.8195     3.8374 O.3     
  30 C30            0.1582    -4.9920    -0.9948 C.2     
  31 C31           -0.3509    -6.2278    -1.6911 C.3     
  32 H32            2.2291    -1.6831     1.8911 H       
  33 H33            1.3906    -3.6788     0.7450 H       
  34 H34           -0.5710    -1.2230    -2.1703 H       
  35 H35           -0.8610     3.7284     0.0067 H       
  36 H36           -0.6100     6.1585     0.2812 H       
  37 H37            3.5961     5.6694     0.8725 H       
  38 H38            3.3570     3.2366     0.6108 H       
  39 H39           -0.7536    -3.6996    -2.3562 H       
  40 H40           -1.3685     2.1920    -1.6382 H       
  41 H41            0.1600     2.8289    -2.2911 H       
  42 H42           -0.4473     1.2454    -2.8314 H       
  43 H43            3.6321     7.5583     0.2050 H       
  44 H44            5.0304     9.6531     0.5496 H       
  45 H45            2.2323     9.7766     1.7680 H       
  46 H46            5.4404     7.4939     1.8266 H       
  47 H47            4.1264     9.7089     3.4666 H       
  48 H48            1.6491     9.6253    -0.5440 H       
  49 H49            6.1133     7.6320     4.2433 H       
  50 H50            4.3951     7.5150     4.6930 H       
  51 H51            6.2313    10.7488     3.0140 H       
  52 H52            4.0208    11.8208     0.6129 H       
  53 H53            5.4541     5.3742     4.6599 H       
  54 H54            0.7686    -5.0843    -0.1087 H       
  55 H55           -1.4408    -6.2153    -1.7027 H       
  56 H56            0.0232    -6.2483    -2.7146 H       
  57 H57           -0.0034    -7.1136    -1.1594 H       
@<TRIPOS>BOND
   1    1    2 1
   2    1    5 1
   3    2    3 ar
   4    2    6 ar
   5    3    4 1
   6    3    9 ar
   7    4    5 2
   8    4   18 1
   9    5   10 1
  10    6    7 ar
  11    6   32 1
  12    7    8 ar
  13    7   33 1
  14    8    9 ar
  15    8   17 1
  16    9   34 1
  17   10   11 ar
  18   10   15 ar
  19   11   12 ar
  20   11   35 1
  21   12   13 ar
  22   12   36 1
  23   13   14 ar
  24   13   16 1
  25   14   15 ar
  26   14   37 1
  27   15   38 1
  28   16   19 1
  29   17   30 2
  30   17   39 1
  31   18   40 1
  32   18   41 1
  33   18   42 1
  34   19   22 1
  35   19   21 1
  36   19   43 1
  37   20   21 1
  38   20   24 1
  39   20   28 1
  40   20   44 1
  41   21   25 1
  42   21   45 1
  43   22   23 1
  44   23   24 1
  45   23   26 1
  46   23   46 1
  47   24   27 1
  48   24   47 1
  49   25   48 1
  50   26   29 1
  51   26   49 1
  52   26   50 1
  53   27   51 1
  54   28   52 1
  55   29   53 1
  56   30   31 1
  57   30   54 1
  58   31   55 1
  59   31   56 1
  60   31   57 1

#	End of record

