#	Name: ASD09080135
#	Creating user name:	WinNT
#	Creation time:	15. 06. 2019 21:20

#	Modifying user name:	WinNT
#	Modification time:	15. 06. 2019 21:20

#	Program:	/corina/corina34_cracker 3.40 0067  02.08.2006

@<TRIPOS>MOLECULE
ASD09080135
  67   70    0    0    0
SMALL
NO_CHARGES


@<TRIPOS>ATOM
   1 C1            -0.3048     2.6840     2.1396 C.ar    
   2 C2            -0.0559     1.3237     2.0791 C.ar    
   3 C3            -1.0582     0.4485     1.6978 C.ar    
   4 C4            -2.3127     0.9292     1.3762 C.ar    
   5 C5            -2.5683     2.2975     1.4360 C.ar    
   6 C6            -1.5576     3.1739     1.8253 C.ar    
   7 Cl7            0.9576     3.7754     2.6180 Cl      
   8 Cl8           -0.7380    -1.2561     1.6233 Cl      
   9 C9            -3.9140     2.8192     1.0910 C.ar    
  10 C10           -4.1698     4.1875     1.1507 C.ar    
  11 C11           -5.4232     4.6673     0.8283 C.ar    
  12 C12           -6.4242     3.7925     0.4465 C.ar    
  13 C13           -6.1758     2.4331     0.3859 C.ar    
  14 C14           -4.9246     1.9430     0.7006 C.ar    
  15 C15           -7.7907     4.3224     0.0956 C.3     
  16 C16           -7.8896     4.5148    -1.4190 C.3     
  17 C17           -9.3132     4.9372    -1.7875 C.3     
  18 C18           -9.3812     5.2502    -3.2836 C.3     
  19 O19           -9.0547     4.0813    -4.0731 O.3     
  20 C20           -9.7230     4.2876    -5.3290 C.3     
  21 O21          -10.8312     5.1734    -5.1225 O.3     
  22 C22          -10.8390     5.5315    -3.7257 C.3     
  23 C23           -8.7496     4.9077    -6.3335 C.3     
  24 C24          -10.2291     2.9482    -5.8682 C.3     
  25 O25           -9.6733     6.1010    -1.0405 O.3     
  26 C26          -11.3349     7.4586     0.0293 C.ar    
  27 C27          -11.6193     8.6399    -0.6301 C.ar    
  28 C28          -11.8675     9.7921     0.0922 C.ar    
  29 C29          -11.8318     9.7630     1.4738 C.ar    
  30 C30          -11.5484     8.5815     2.1331 C.ar    
  31 C31          -11.2988     7.4296     1.4108 C.ar    
  32 C32          -11.0705     6.2011    -0.7580 C.3     
  33 O33           -6.9703     5.5281    -1.8314 O.3     
  34 C34           -6.3068     4.5501    -4.1954 C.3     
  35 S35           -5.7308     4.9912    -2.5328 S.o2    
  36 O36           -4.8500     6.1048    -2.5893 O.2     
  37 O37           -5.3899     3.8241    -1.7972 O.2     
  38 H38            0.9236     0.9441     2.3298 H       
  39 H39           -3.0940     0.2455     1.0785 H       
  40 H40           -1.7510     4.2354     1.8736 H       
  41 H41           -3.3890     4.8714     1.4491 H       
  42 H42           -5.6227     5.7277     0.8746 H       
  43 H43           -6.9613     1.7544     0.0878 H       
  44 H44           -4.7317     0.8814     0.6530 H       
  45 H45           -8.5505     3.6123     0.4220 H       
  46 H46           -7.9487     5.2785     0.5945 H       
  47 H47           -7.6471     3.5781    -1.9209 H       
  48 H48          -10.0044     4.1274    -1.5540 H       
  49 H49           -8.7283     6.0860    -3.5354 H       
  50 H50          -11.5374     4.9046    -3.1713 H       
  51 H51          -11.0830     6.5863    -3.5999 H       
  52 H52           -7.9027     4.2374    -6.4800 H       
  53 H53           -9.2588     5.0630    -7.2846 H       
  54 H54           -8.3938     5.8645    -5.9514 H       
  55 H55          -10.9268     2.5096    -5.1548 H       
  56 H56          -10.7352     3.1076    -6.8203 H       
  57 H57           -9.3858     2.2731    -6.0136 H       
  58 H58          -11.6471     8.6626    -1.7095 H       
  59 H59          -12.0889    10.7151    -0.4229 H       
  60 H60          -12.0250    10.6633     2.0380 H       
  61 H61          -11.5198     8.5589     3.2125 H       
  62 H62          -11.0766     6.5067     1.9259 H       
  63 H63          -11.6289     6.2339    -1.6935 H       
  64 H64          -11.3865     5.3351    -0.1764 H       
  65 H65           -6.7021     5.4373    -4.6902 H       
  66 H66           -5.4738     4.1518    -4.7747 H       
  67 H67           -7.0905     3.7964    -4.1203 H       
@<TRIPOS>BOND
   1    1    2 ar
   2    1    7 1
   3    1    6 ar
   4    2    3 ar
   5    2   38 1
   6    3    4 ar
   7    3    8 1
   8    4    5 ar
   9    4   39 1
  10    5    6 ar
  11    5    9 1
  12    6   40 1
  13    9   10 ar
  14    9   14 ar
  15   10   11 ar
  16   10   41 1
  17   11   12 ar
  18   11   42 1
  19   12   13 ar
  20   12   15 1
  21   13   14 ar
  22   13   43 1
  23   14   44 1
  24   15   16 1
  25   15   45 1
  26   15   46 1
  27   16   17 1
  28   16   33 1
  29   16   47 1
  30   17   25 1
  31   17   18 1
  32   17   48 1
  33   18   19 1
  34   18   22 1
  35   18   49 1
  36   19   20 1
  37   20   21 1
  38   20   23 1
  39   20   24 1
  40   21   22 1
  41   22   50 1
  42   22   51 1
  43   23   52 1
  44   23   53 1
  45   23   54 1
  46   24   55 1
  47   24   56 1
  48   24   57 1
  49   25   32 1
  50   26   27 ar
  51   26   31 ar
  52   26   32 1
  53   27   28 ar
  54   27   58 1
  55   28   29 ar
  56   28   59 1
  57   29   30 ar
  58   29   60 1
  59   30   31 ar
  60   30   61 1
  61   31   62 1
  62   32   63 1
  63   32   64 1
  64   33   35 1
  65   34   35 1
  66   34   65 1
  67   34   66 1
  68   34   67 1
  69   35   36 2
  70   35   37 2

#	End of record

