#	Name: ASD01411101
#	Creating user name:	WinNT
#	Creation time:	15. 06. 2019 19:19

#	Modifying user name:	WinNT
#	Modification time:	15. 06. 2019 19:19

#	Program:	/corina/corina34_cracker 3.40 0067  02.08.2006

@<TRIPOS>MOLECULE
ASD01411101
  60   63    0    0    0
SMALL
NO_CHARGES


@<TRIPOS>ATOM
   1 C1            -0.0187     1.5313     0.0105 C.3     
   2 C2             0.0021    -0.0041     0.0020 C.3     
   3 O3             1.3232     2.0258     0.0003 O.3     
   4 C4             0.9857    -0.4585     1.0511 C.2     
   5 C5             2.0383     1.8197     1.2250 C.3     
   6 C6             1.9084     0.3641     1.6075 C.2     
   7 C7             1.1555    -1.7575     1.6515 C.ar    
   8 C8             1.4406     2.6981     2.3259 C.3     
   9 C9             3.5138     2.1728     1.0270 C.3     
  10 N10            2.6518    -0.3279     2.5213 N.pl3   
  11 C11            0.4922    -2.9909     1.4724 C.ar    
  12 C12            2.2231    -1.6250     2.5771 C.ar    
  13 C13            0.9421    -4.0632     2.2509 C.ar    
  14 C14            2.6474    -2.7116     3.3365 C.ar    
  15 C15            1.9853    -3.9207     3.1503 C.ar    
  16 C16            1.5465     4.1690     1.9186 C.3     
  17 C17            2.2079     2.4736     3.6304 C.3     
  18 C18            0.8386     5.0387     2.9595 C.3     
  19 O19            2.3759    -5.0009     3.8777 O.3     
  20 C20            1.6691    -6.2228     3.6553 C.3     
  21 C21            2.2456    -7.3167     4.5564 C.3     
  22 N22            1.5210    -8.5694     4.3284 N.pl3   
  23 C23            2.0709    -9.7542     3.9896 C.2     
  24 C24            1.0687   -10.6560     3.8739 C.2     
  25 C25           -0.1349    -9.9998     4.1516 C.2     
  26 N26            0.1356    -8.7502     4.4296 N.2     
  27 C27           -0.5864    -3.1370     0.5419 C.1     
  28 N28           -1.4420    -3.2530    -0.1964 N.1     
  29 C29            3.7802    -2.5832     4.3221 C.3     
  30 C30            4.1007     1.2944    -0.0477 C.2     
  31 O31            3.4097     0.4705    -0.5987 O.2     
  32 O32            5.3910     1.4273    -0.3927 O.3     
  33 H33           -0.5458     1.8924    -0.8726 H       
  34 H34           -0.5288     1.8829     0.9073 H       
  35 H35           -0.9909    -0.3879     0.2362 H       
  36 H36            0.3156    -0.3635    -0.9781 H       
  37 H37            0.3926     2.4358     2.4711 H       
  38 H38            3.6006     3.2178     0.7298 H       
  39 H39            4.0536     2.0146     1.9606 H       
  40 H40            3.3746     0.0446     3.0502 H       
  41 H41            0.4640    -5.0261     2.1474 H       
  42 H42            2.5967     4.4550     1.8598 H       
  43 H43            1.0761     4.3114     0.9457 H       
  44 H44            1.7821     3.0994     4.4148 H       
  45 H45            2.1325     1.4256     3.9206 H       
  46 H46            3.2559     2.7358     3.4852 H       
  47 H47           -0.2116     4.7527     3.0182 H       
  48 H48            1.3089     4.8964     3.9324 H       
  49 H49            0.9140     6.0867     2.6693 H       
  50 H50            0.6138    -6.0795     3.8874 H       
  51 H51            1.7746    -6.5188     2.6116 H       
  52 H52            3.3009    -7.4600     4.3243 H       
  53 H53            2.1401    -7.0207     5.6001 H       
  54 H54            3.1224    -9.9480     3.8376 H       
  55 H55            1.1786   -11.6983     3.6133 H       
  56 H56           -1.1174   -10.4481     4.1425 H       
  57 H57            3.3833    -2.2988     5.2966 H       
  58 H58            4.2991    -3.5381     4.4057 H       
  59 H59            4.4774    -1.8198     3.9769 H       
  60 H60            5.7223     0.8416    -1.0872 H       
@<TRIPOS>BOND
   1    1    2 1
   2    1    3 1
   3    1   33 1
   4    1   34 1
   5    2    4 1
   6    2   35 1
   7    2   36 1
   8    3    5 1
   9    4    6 2
  10    4    7 1
  11    5    8 1
  12    5    9 1
  13    5    6 1
  14    6   10 1
  15    7   11 ar
  16    7   12 ar
  17    8   16 1
  18    8   17 1
  19    8   37 1
  20    9   30 1
  21    9   38 1
  22    9   39 1
  23   10   12 1
  24   10   40 1
  25   11   13 ar
  26   11   27 1
  27   12   14 ar
  28   13   15 ar
  29   13   41 1
  30   14   15 ar
  31   14   29 1
  32   15   19 1
  33   16   18 1
  34   16   42 1
  35   16   43 1
  36   17   44 1
  37   17   45 1
  38   17   46 1
  39   18   47 1
  40   18   48 1
  41   18   49 1
  42   19   20 1
  43   20   21 1
  44   20   50 1
  45   20   51 1
  46   21   22 1
  47   21   52 1
  48   21   53 1
  49   22   23 1
  50   22   26 1
  51   23   24 2
  52   23   54 1
  53   24   25 1
  54   24   55 1
  55   25   26 2
  56   25   56 1
  57   27   28 3
  58   29   57 1
  59   29   58 1
  60   29   59 1
  61   30   31 2
  62   30   32 1
  63   32   60 1

#	End of record

