#	Name: ASD06020184
#	Creating user name:	WinNT
#	Creation time:	15. 06. 2019 21:04

#	Modifying user name:	WinNT
#	Modification time:	15. 06. 2019 21:04

#	Program:	/corina/corina34_cracker 3.40 0067  02.08.2006

@<TRIPOS>MOLECULE
ASD06020184
  26   27    0    0    0
SMALL
NO_CHARGES


@<TRIPOS>ATOM
   1 C1            -0.0179     1.4688     0.0101 C.2     
   2 C2             0.0021    -0.0041     0.0020 C.ar    
   3 C3             0.0001    -0.7007    -1.2114 C.ar    
   4 C4             0.0188    -2.0811    -1.2100 C.ar    
   5 C5             0.0396    -2.7746    -0.0129 C.ar    
   6 C6             0.0412    -2.0918     1.1909 C.ar    
   7 C7             0.0289    -0.7129     1.2063 C.ar    
   8 Cl8            1.4735     2.3571     0.0006 Cl      
   9 N9            -1.1567     2.1058     0.0190 N.2     
  10 N10            0.0374     0.0148     2.4953 N.pl3   
  11 O11            0.0608    -0.6044     3.5440 O.2     
  12 O12            0.0211     1.2326     2.5073 O.2     
  13 C13           -1.2093     5.5808    -1.1168 C.ar    
  14 C14           -1.1908     4.2010    -1.1724 C.ar    
  15 C15           -1.1753     3.4731     0.0265 C.ar    
  16 C16           -1.1798     4.1880     1.2334 C.ar    
  17 C17           -1.1992     5.5682     1.1929 C.ar    
  18 N18           -1.2129     6.2129     0.0416 N.ar    
  19 F19           -1.1659     3.5364     2.4168 F       
  20 F20           -1.1877     3.5624    -2.3630 F       
  21 Cl21          -0.0265     0.1681    -2.7141 Cl      
  22 H22            0.0170    -2.6209    -2.1454 H       
  23 H23            0.0542    -3.8544    -0.0180 H       
  24 H24            0.0567    -2.6405     2.1210 H       
  25 H25           -1.2168     6.1505    -2.0343 H       
  26 H26           -1.2029     6.1279     2.1166 H       
@<TRIPOS>BOND
   1    1    2 1
   2    1    8 1
   3    1    9 2
   4    2    3 ar
   5    2    7 ar
   6    3    4 ar
   7    3   21 1
   8    4    5 ar
   9    4   22 1
  10    5    6 ar
  11    5   23 1
  12    6    7 ar
  13    6   24 1
  14    7   10 1
  15    9   15 1
  16   10   11 2
  17   10   12 2
  18   13   14 ar
  19   13   18 ar
  20   13   25 1
  21   14   15 ar
  22   14   20 1
  23   15   16 ar
  24   16   17 ar
  25   16   19 1
  26   17   18 ar
  27   17   26 1

#	End of record

