#	Name: ASD01913971
#	Creating user name:	WinNT
#	Creation time:	15. 06. 2019 20:02

#	Modifying user name:	WinNT
#	Modification time:	15. 06. 2019 20:02

#	Program:	/corina/corina34_cracker 3.40 0067  02.08.2006

@<TRIPOS>MOLECULE
ASD01913971
  44   47    0    0    0
SMALL
NO_CHARGES


@<TRIPOS>ATOM
   1 C1             0.1399     1.5724     0.2927 C.2     
   2 C2             0.2425     0.3253     0.9085 C.2     
   3 N3             1.2537     1.7412    -0.4166 N.2     
   4 N4             2.0227     0.7222    -0.3206 N.pl3   
   5 C5             1.4504    -0.2114     0.4946 C.2     
   6 C6             2.0054    -1.5242     0.8604 C.2     
   7 N7             3.2612    -1.8502     0.4954 N.am    
   8 C8             3.8104    -3.0652     0.8987 C.ar    
   9 N9             5.1252    -3.2173     0.9152 N.ar    
  10 C10            5.6860    -4.3510     1.2906 C.ar    
  11 C11            4.9145    -5.4270     1.6820 C.ar    
  12 C12            3.5311    -5.3086     1.6789 C.ar    
  13 C13            2.9725    -4.1055     1.2857 C.ar    
  14 O14            1.3310    -2.3150     1.4921 O.2     
  15 C15            7.1881    -4.4732     1.2917 C.3     
  16 C16           -0.7173    -0.3286     1.8451 C.3     
  17 C17           -2.1448     0.0455     1.5415 C.3     
  18 C18           -2.5078     1.4303     1.9672 C.3     
  19 C19           -2.0988     2.5317     1.0474 C.ar    
  20 C20           -0.9376     2.5913     0.3105 C.ar    
  21 C21           -3.0073     3.5925     0.9467 C.ar    
  22 C22           -2.7252     4.6618     0.1198 C.ar    
  23 C23           -1.5411     4.6561    -0.5948 C.ar    
  24 N24           -0.7077     3.6518    -0.4821 N.ar    
  25 C25            3.3206     0.5797    -0.9850 C.3     
  26 H26            3.7826    -1.2389    -0.0480 H       
  27 H27            5.3822    -6.3515     1.9870 H       
  28 H28            2.9054    -6.1356     1.9802 H       
  29 H29            1.9001    -3.9787     1.2714 H       
  30 H30            7.5767    -4.1679     2.2633 H       
  31 H31            7.4686    -5.5083     1.0971 H       
  32 H32            7.6054    -3.8316     0.5156 H       
  33 H33           -0.6096    -1.4103     1.7649 H       
  34 H34           -0.4804    -0.0249     2.8647 H       
  35 H35           -2.3067    -0.0422     0.4672 H       
  36 H36           -2.8045    -0.6587     2.0485 H       
  37 H37           -3.5901     1.4749     2.0893 H       
  38 H38           -2.0545     1.6157     2.9409 H       
  39 H39           -3.9262     3.5741     1.5139 H       
  40 H40           -3.4165     5.4870     0.0324 H       
  41 H41           -1.3026     5.4826    -1.2478 H       
  42 H42            4.1187     0.7789    -0.2699 H       
  43 H43            3.4224    -0.4351    -1.3696 H       
  44 H44            3.3864     1.2891    -1.8099 H       
@<TRIPOS>BOND
   1    1    2 1
   2    1    3 2
   3    1   20 1
   4    2   16 1
   5    2    5 2
   6    3    4 1
   7    4    5 1
   8    4   25 1
   9    5    6 1
  10    6    7 am
  11    6   14 2
  12    7    8 1
  13    7   26 1
  14    8    9 ar
  15    8   13 ar
  16    9   10 ar
  17   10   11 ar
  18   10   15 1
  19   11   12 ar
  20   11   27 1
  21   12   13 ar
  22   12   28 1
  23   13   29 1
  24   15   30 1
  25   15   31 1
  26   15   32 1
  27   16   17 1
  28   16   33 1
  29   16   34 1
  30   17   18 1
  31   17   35 1
  32   17   36 1
  33   18   19 1
  34   18   37 1
  35   18   38 1
  36   19   20 ar
  37   19   21 ar
  38   20   24 ar
  39   21   22 ar
  40   21   39 1
  41   22   23 ar
  42   22   40 1
  43   23   24 ar
  44   23   41 1
  45   25   42 1
  46   25   43 1
  47   25   44 1

#	End of record

