#	Name: ASD00069060
#	Creating user name:	WinNT
#	Creation time:	15. 06. 2019 18:29

#	Modifying user name:	WinNT
#	Modification time:	15. 06. 2019 18:29

#	Program:	/corina/corina34_cracker 3.40 0067  02.08.2006

@<TRIPOS>MOLECULE
ASD00069060
  21   21    0    0    0
SMALL
NO_CHARGES


@<TRIPOS>ATOM
   1 C1            -0.0167     1.3802     0.0096 C.ar    
   2 C2             0.0021    -0.0041     0.0020 C.ar    
   3 C3            -1.1857    -0.7109     0.0095 C.ar    
   4 C4            -2.3920    -0.0361     0.0242 C.ar    
   5 C5            -2.4120     1.3464     0.0318 C.ar    
   6 C6            -1.2257     2.0550     0.0306 C.ar    
   7 C7            -3.7279     2.0806     0.0472 C.3     
   8 C8            -3.8110     2.9522     1.3019 C.3     
   9 C9            -3.8328     2.9656    -1.1964 C.3     
  10 F10            1.1437     2.0720     0.0023 F       
  11 H11            0.9445    -0.5315    -0.0101 H       
  12 H12           -1.1713    -1.7907     0.0036 H       
  13 H13           -3.3196    -0.5892     0.0293 H       
  14 H14           -1.2416     3.1349     0.0368 H       
  15 H15           -4.5459     1.3602     0.0505 H       
  16 H16           -2.9930     3.6726     1.2987 H       
  17 H17           -4.7628     3.4832     1.3131 H       
  18 H18           -3.7363     2.3217     2.1879 H       
  19 H19           -4.7846     3.4967    -1.1852 H       
  20 H20           -3.0148     3.6861    -1.1997 H       
  21 H21           -3.7737     2.3447    -2.0903 H       
@<TRIPOS>BOND
   1    1    2 ar
   2    1   10 1
   3    1    6 ar
   4    2    3 ar
   5    2   11 1
   6    3    4 ar
   7    3   12 1
   8    4    5 ar
   9    4   13 1
  10    5    6 ar
  11    5    7 1
  12    6   14 1
  13    7    8 1
  14    7    9 1
  15    7   15 1
  16    8   16 1
  17    8   17 1
  18    8   18 1
  19    9   19 1
  20    9   20 1
  21    9   21 1

#	End of record

