#	Name: ASD03180046
#	Creating user name:	WinNT
#	Creation time:	15. 06. 2019 20:33

#	Modifying user name:	WinNT
#	Modification time:	15. 06. 2019 20:33

#	Program:	/corina/corina34_cracker 3.40 0067  02.08.2006

@<TRIPOS>MOLECULE
ASD03180046
  40   42    0    0    0
SMALL
NO_CHARGES


@<TRIPOS>ATOM
   1 C1             0.4002     1.0259    -1.4911 C.ar    
   2 C2             0.0901    -0.0499    -0.6723 C.ar    
   3 C3             0.9405    -0.4011     0.3655 C.ar    
   4 C4             2.1008     0.3227     0.5842 C.ar    
   5 C5             2.4111     1.4026    -0.2392 C.ar    
   6 C6             1.5572     1.7503    -1.2756 C.ar    
   7 N7             3.5849     2.1379    -0.0202 N.pl3   
   8 C8             3.5651     3.5199    -0.1176 C.2     
   9 C9             4.3937     5.6014    -0.1621 C.2     
  10 N10            4.6062     4.2908    -0.0467 N.2     
  11 S11            2.1239     4.5009    -0.3643 S.3     
  12 C12            3.1095     5.9611    -0.3420 C.2     
  13 C13            5.4919     6.5903    -0.0994 C.2     
  14 S14            5.3237     8.3388    -0.2384 S.3     
  15 C15            7.0124     8.5263    -0.0500 C.2     
  16 N16            7.5789     7.3760     0.0957 N.2     
  17 C17            6.8014     6.3147     0.0805 C.2     
  18 C18            7.7370     9.8477    -0.0537 C.3     
  19 C19            7.3276     4.9122     0.2452 C.3     
  20 O20            2.9357    -0.0199     1.6016 O.3     
  21 C21            2.5538    -1.1378     2.4057 C.3     
  22 O22           -1.0491    -0.7607    -0.8870 O.3     
  23 C23           -1.8790    -0.3436    -1.9729 C.3     
  24 H24           -0.2614     1.2951    -2.3012 H       
  25 H25            0.6978    -1.2385     1.0029 H       
  26 H26            1.7966     2.5876    -1.9144 H       
  27 H27            4.4108     1.6790     0.1996 H       
  28 H28            2.7456     6.9716    -0.4552 H       
  29 H29            7.7904    10.2356     0.9636 H       
  30 H30            8.7456     9.7079    -0.4426 H       
  31 H31            7.1990    10.5553    -0.6846 H       
  32 H32            7.5789     4.5012    -0.7325 H       
  33 H33            8.2192     4.9299     0.8720 H       
  34 H34            6.5652     4.2910     0.7154 H       
  35 H35            1.5898    -0.9368     2.8730 H       
  36 H36            2.4757    -2.0262     1.7791 H       
  37 H37            3.3047    -1.3029     3.1783 H       
  38 H38           -2.7522    -0.9932    -2.0332 H       
  39 H39           -2.2018     0.6846    -1.8095 H       
  40 H40           -1.3162    -0.4040    -2.9044 H       
@<TRIPOS>BOND
   1    1    2 ar
   2    1    6 ar
   3    1   24 1
   4    2    3 ar
   5    2   22 1
   6    3    4 ar
   7    3   25 1
   8    4    5 ar
   9    4   20 1
  10    5    6 ar
  11    5    7 1
  12    6   26 1
  13    7    8 1
  14    7   27 1
  15    8   11 1
  16    8   10 2
  17    9   10 1
  18    9   12 2
  19    9   13 1
  20   11   12 1
  21   12   28 1
  22   13   14 1
  23   13   17 2
  24   14   15 1
  25   15   16 2
  26   15   18 1
  27   16   17 1
  28   17   19 1
  29   18   29 1
  30   18   30 1
  31   18   31 1
  32   19   32 1
  33   19   33 1
  34   19   34 1
  35   20   21 1
  36   21   35 1
  37   21   36 1
  38   21   37 1
  39   22   23 1
  40   23   38 1
  41   23   39 1
  42   23   40 1

#	End of record

