#	Name: ASD09200046
#	Creating user name:	WinNT
#	Creation time:	15. 06. 2019 21:21

#	Modifying user name:	WinNT
#	Modification time:	15. 06. 2019 21:21

#	Program:	/corina/corina34_cracker 3.40 0067  02.08.2006

@<TRIPOS>MOLECULE
ASD09200046
  45   47    0    0    0
SMALL
NO_CHARGES


@<TRIPOS>ATOM
   1 C1            -0.0022     1.3932     0.2138 C.ar    
   2 C2             0.1478     0.3351    -0.6656 C.ar    
   3 C3             1.3506    -0.3430    -0.7354 C.ar    
   4 C4             2.4128     0.0421     0.0829 C.ar    
   5 C5             2.2538     1.1092     0.9663 C.ar    
   6 C6             1.0487     1.7784     1.0271 C.ar    
   7 C7             3.7047    -0.6804     0.0139 C.ar    
   8 N8             3.7323    -2.0055     0.1069 N.ar    
   9 C9             4.8825    -2.6488     0.0456 C.ar    
  10 C10            6.0719    -1.9435    -0.1168 C.ar    
  11 N11            6.0543    -0.6188    -0.2103 N.ar    
  12 C12            4.9007     0.0329    -0.1556 C.ar    
  13 N13            4.8779     1.4169    -0.2528 N.pl3   
  14 N14            7.2799    -2.6268    -0.1807 N.3     
  15 C15            8.4026    -1.6961    -0.3531 C.3     
  16 C16            9.7225    -2.4665    -0.2734 C.3     
  17 C17            9.7499    -3.5370    -1.3679 C.3     
  18 C18            8.5437    -4.4641    -1.1945 C.3     
  19 C19            7.2580    -3.6358    -1.2475 C.3     
  20 N20            9.6881    -2.8925    -2.6866 N.3     
  21 Cl21           1.5384    -1.6706    -1.8380 Cl      
  22 Cl22          -1.1763    -0.1417    -1.6819 Cl      
  23 C23            8.5302    -5.5007    -2.3198 C.3     
  24 C24           10.8912    -1.4999    -0.4749 C.3     
  25 H25           -0.9419     1.9233     0.2622 H       
  26 H26            3.0728     1.4113     1.6023 H       
  27 H27            0.9256     2.6051     1.7110 H       
  28 H28            4.9016    -3.7259     0.1219 H       
  29 H29            5.7091     1.9169    -0.2532 H       
  30 H30            4.0307     1.8844    -0.3205 H       
  31 H31            8.3245    -1.2090    -1.3250 H       
  32 H32            8.3738    -0.9426     0.4340 H       
  33 H33            9.8076    -2.9426     0.7034 H       
  34 H34           10.6695    -4.1167    -1.2876 H       
  35 H35            8.6102    -4.9716    -0.2322 H       
  36 H36            6.3979    -4.2910    -1.1100 H       
  37 H37            7.1853    -3.1395    -2.2152 H       
  38 H38            9.7048    -3.5790    -3.4258 H       
  39 H39            8.8748    -2.3000    -2.7617 H       
  40 H40            9.4478    -6.0880    -2.2837 H       
  41 H41            7.6714    -6.1604    -2.1958 H       
  42 H42            8.4619    -4.9921    -3.2814 H       
  43 H43           10.8691    -0.7361     0.3024 H       
  44 H44           11.8310    -2.0491    -0.4181 H       
  45 H45           10.8060    -1.0257    -1.4527 H       
@<TRIPOS>BOND
   1    1    2 ar
   2    1    6 ar
   3    1   25 1
   4    2    3 ar
   5    2   22 1
   6    3    4 ar
   7    3   21 1
   8    4    5 ar
   9    4    7 1
  10    5    6 ar
  11    5   26 1
  12    6   27 1
  13    7    8 ar
  14    7   12 ar
  15    8    9 ar
  16    9   10 ar
  17    9   28 1
  18   10   11 ar
  19   10   14 1
  20   11   12 ar
  21   12   13 1
  22   13   29 1
  23   13   30 1
  24   14   15 1
  25   14   19 1
  26   15   16 1
  27   15   31 1
  28   15   32 1
  29   16   17 1
  30   16   24 1
  31   16   33 1
  32   17   18 1
  33   17   20 1
  34   17   34 1
  35   18   19 1
  36   18   23 1
  37   18   35 1
  38   19   36 1
  39   19   37 1
  40   20   38 1
  41   20   39 1
  42   23   40 1
  43   23   41 1
  44   23   42 1
  45   24   43 1
  46   24   44 1
  47   24   45 1

#	End of record

