#	Name: ASD01770001
#	Creating user name:	WinNT
#	Creation time:	15. 06. 2019 19:23

#	Modifying user name:	WinNT
#	Modification time:	15. 06. 2019 19:23

#	Program:	/corina/corina34_cracker 3.40 0067  02.08.2006

@<TRIPOS>MOLECULE
ASD01770001
  33   33    0    0    0
SMALL
NO_CHARGES


@<TRIPOS>ATOM
   1 O1            -0.0173     1.4248     0.0099 O.3     
   2 C2             0.0021    -0.0041     0.0020 C.3     
   3 C3             0.7175    -0.5102     1.2573 C.3     
   4 C4             2.1334     0.0727     1.2986 C.3     
   5 C5             2.0458     1.6014     1.2560 C.3     
   6 C6             1.2791     2.0260     0.0007 C.3     
   7 O7            -0.0042    -0.0946     2.4186 O.3     
   8 O8             2.7834    -0.3354     2.5040 O.3     
   9 O9             3.3630     2.1544     1.2209 O.3     
  10 S10            1.1084     3.8318    -0.0220 S.3     
  11 C11           -1.0768     3.5333    -1.6398 C.3     
  12 C12            0.3245     4.1474    -1.6271 C.3     
  13 C13            0.2220     5.6566    -1.8567 C.3     
  14 C14           -1.4332    -0.5337    -0.0158 C.3     
  15 O15           -2.0645    -0.1576    -1.2414 O.3     
  16 H16            0.5305    -0.3556    -0.8842 H       
  17 H17            0.7722    -1.5985     1.2315 H       
  18 H18            2.6999    -0.2842     0.4385 H       
  19 H19            1.5222     1.9611     2.1417 H       
  20 H20            1.8242     1.7010    -0.8855 H       
  21 H21            0.3934    -0.3811     3.2522 H       
  22 H22            3.6861    -0.0014     2.5966 H       
  23 H23            3.3832     3.1208     1.1928 H       
  24 H24           -1.6771     3.9814    -0.8480 H       
  25 H25           -1.5479     3.7230    -2.6043 H       
  26 H26           -1.0039     2.4581    -1.4763 H       
  27 H27            0.9247     3.6993    -2.4190 H       
  28 H28            1.2203     6.0941    -1.8477 H       
  29 H29           -0.2490     5.8462    -2.8212 H       
  30 H30           -0.3782     6.1046    -1.0648 H       
  31 H31           -1.4205    -1.6204     0.0677 H       
  32 H32           -1.9869    -0.1113     0.8227 H       
  33 H33           -2.9793    -0.4606    -1.3218 H       
@<TRIPOS>BOND
   1    1    2 1
   2    1    6 1
   3    2    3 1
   4    2   14 1
   5    2   16 1
   6    3    4 1
   7    3    7 1
   8    3   17 1
   9    4    5 1
  10    4    8 1
  11    4   18 1
  12    5    6 1
  13    5    9 1
  14    5   19 1
  15    6   10 1
  16    6   20 1
  17    7   21 1
  18    8   22 1
  19    9   23 1
  20   10   12 1
  21   11   12 1
  22   11   24 1
  23   11   25 1
  24   11   26 1
  25   12   13 1
  26   12   27 1
  27   13   28 1
  28   13   29 1
  29   13   30 1
  30   14   15 1
  31   14   31 1
  32   14   32 1
  33   15   33 1

#	End of record

