#	Name: ASD06020180
#	Creating user name:	WinNT
#	Creation time:	15. 06. 2019 21:04

#	Modifying user name:	WinNT
#	Modification time:	15. 06. 2019 21:04

#	Program:	/corina/corina34_cracker 3.40 0067  02.08.2006

@<TRIPOS>MOLECULE
ASD06020180
  25   27    0    0    0
SMALL
NO_CHARGES


@<TRIPOS>ATOM
   1 C1             0.0021    -0.0041     0.0020 C.1     
   2 C2            -0.0173     1.4278     0.0099 C.ar    
   3 C3             1.1902     2.1532     0.0023 C.ar    
   4 C4             1.1549     3.5474     0.0101 C.ar    
   5 C5            -0.0593     4.2072     0.0253 C.ar    
   6 C6            -1.2454     3.4934     0.0333 C.ar    
   7 C7            -1.2317     2.1131     0.0194 C.ar    
   8 N8             0.0175    -1.1399    -0.0042 N.1     
   9 C9             6.1926     0.2824    -0.0536 C.ar    
  10 C10            4.8512     0.6507    -0.0386 C.ar    
  11 C11            3.8588    -0.3407    -0.0340 C.ar    
  12 C12            4.2950    -1.6888    -0.0445 C.ar    
  13 C13            5.6415    -1.9585    -0.0584 C.ar    
  14 N14            6.5408    -0.9875    -0.0631 N.ar    
  15 S15            4.0604     2.2234    -0.0243 S.3     
  16 C16            2.4844     1.4424    -0.0135 C.2     
  17 N17            2.6214     0.1572    -0.0205 N.2     
  18 O18            7.9163    -1.3236    -0.0783 O.3     
  19 F19            3.3963    -2.6975    -0.0404 F       
  20 Cl20           2.6356     4.4535     0.0014 Cl      
  21 H21           -0.0830     5.2870     0.0314 H       
  22 H22           -2.1882     4.0202     0.0455 H       
  23 H23           -2.1616     1.5639     0.0207 H       
  24 H24            6.9563     1.0460    -0.0617 H       
  25 H25            5.9740    -2.9860    -0.0660 H       
@<TRIPOS>BOND
   1    1    2 1
   2    1    8 3
   3    2    3 ar
   4    2    7 ar
   5    3    4 ar
   6    3   16 1
   7    4    5 ar
   8    4   20 1
   9    5    6 ar
  10    5   21 1
  11    6    7 ar
  12    6   22 1
  13    7   23 1
  14    9   10 ar
  15    9   14 ar
  16    9   24 1
  17   10   11 ar
  18   10   15 1
  19   11   12 ar
  20   11   17 1
  21   12   13 ar
  22   12   19 1
  23   13   14 ar
  24   13   25 1
  25   14   18 1
  26   15   16 1
  27   16   17 2

#	End of record

