#	Name: ASD00170649
#	Creating user name:	WinNT
#	Creation time:	15. 06. 2019 18:32

#	Modifying user name:	WinNT
#	Modification time:	15. 06. 2019 18:32

#	Program:	/corina/corina34_cracker 3.40 0067  02.08.2006

@<TRIPOS>MOLECULE
ASD00170649
  63   67    0    0    0
SMALL
NO_CHARGES


@<TRIPOS>ATOM
   1 C1            -0.0200     1.2091    -0.0128 C.2     
   2 O2             0.5479     0.7829     0.9766 O.2     
   3 C3             1.8404     0.4489    -1.4614 C.ar    
   4 C4             0.5893     1.0327    -1.3484 C.ar    
   5 C5            -0.1058     1.4585    -2.4941 C.ar    
   6 C6             0.4323     1.3071    -3.7311 C.ar    
   7 C7             1.7008     0.7173    -3.8795 C.ar    
   8 C8             2.2776     0.5492    -5.1494 C.ar    
   9 C9             3.5068    -0.0253    -5.2616 C.ar    
  10 C10            4.2060    -0.4514    -4.1339 C.ar    
  11 C11            3.6799    -0.3054    -2.8874 C.ar    
  12 C12            2.4121     0.2838    -2.7315 C.ar    
  13 C13           -5.0674     1.5804     0.2421 C.3     
  14 C14           -3.6205     2.0334     0.2331 C.2     
  15 C15           -2.5829     1.1994     0.0944 C.2     
  16 C16           -2.7553    -0.3028    -0.0695 C.3     
  17 C17           -4.1786    -0.6703     0.3621 C.3     
  18 N18           -5.1360     0.2190    -0.3091 N.3     
  19 C19           -1.3077     1.8901     0.1195 C.2     
  20 C20           -1.4321     3.2477     0.2799 C.2     
  21 S21           -3.0719     3.6913     0.3997 S.3     
  22 C22           -6.5014    -0.3159    -0.2226 C.3     
  23 C23           -7.4110     0.4812    -1.1217 C.ar    
  24 C24           -7.5906     0.0959    -2.4370 C.ar    
  25 C25           -8.4264     0.8268    -3.2677 C.ar    
  26 C26           -9.0842     1.9480    -2.7761 C.ar    
  27 C27           -8.9013     2.3318    -1.4529 C.ar    
  28 C28           -8.0679     1.5924    -0.6273 C.ar    
  29 O29           -9.5425     3.4284    -0.9672 O.3     
  30 C30           -9.3076     3.7640     0.4018 C.3     
  31 O31           -9.9050     2.6683    -3.5882 O.3     
  32 C32          -11.2802     2.2821    -3.6282 C.3     
  33 O33           -8.6017     0.4474    -4.5618 O.3     
  34 C34           -7.8937    -0.7144    -4.9989 C.3     
  35 N35           -0.3737     4.1316     0.3371 N.pl3   
  36 H36            2.3729     0.1272    -0.5786 H       
  37 H37           -1.0805     1.9115    -2.3885 H       
  38 H38           -0.1138     1.6391    -4.6017 H       
  39 H39            1.7480     0.8739    -6.0328 H       
  40 H40            3.9466    -0.1531    -6.2397 H       
  41 H41            5.1794    -0.9043    -4.2509 H       
  42 H42            4.2328    -0.6404    -2.0222 H       
  43 H43           -5.4445     1.5805     1.2648 H       
  44 H44           -5.6657     2.2541    -0.3713 H       
  45 H45           -2.6046    -0.5786    -1.1132 H       
  46 H46           -2.0339    -0.8264     0.5578 H       
  47 H47           -4.3869    -1.7041     0.0863 H       
  48 H48           -4.2723    -0.5555     1.4419 H       
  49 H49           -6.5034    -1.3596    -0.5369 H       
  50 H50           -6.8547    -0.2455     0.8061 H       
  51 H51           -7.0790    -0.7755    -2.8183 H       
  52 H52           -7.9287     1.8875     0.4022 H       
  53 H53           -9.6208     2.9360     1.0378 H       
  54 H54           -8.2451     3.9555     0.5518 H       
  55 H55           -9.8777     4.6563     0.6602 H       
  56 H56          -11.3581     1.2510    -3.9731 H       
  57 H57          -11.7099     2.3647    -2.6299 H       
  58 H58          -11.8215     2.9359    -4.3120 H       
  59 H59           -8.1218    -0.9059    -6.0474 H       
  60 H60           -6.8221    -0.5515    -4.8840 H       
  61 H61           -8.1973    -1.5721    -4.3985 H       
  62 H62            0.5371     3.7979     0.3419 H       
  63 H63           -0.5406     5.0864     0.3725 H       
@<TRIPOS>BOND
   1    1    2 2
   2    1    4 1
   3    1   19 1
   4    3    4 ar
   5    3   12 ar
   6    3   36 1
   7    4    5 ar
   8    5    6 ar
   9    5   37 1
  10    6    7 ar
  11    6   38 1
  12    7    8 ar
  13    7   12 ar
  14    8    9 ar
  15    8   39 1
  16    9   10 ar
  17    9   40 1
  18   10   11 ar
  19   10   41 1
  20   11   12 ar
  21   11   42 1
  22   13   14 1
  23   13   18 1
  24   13   43 1
  25   13   44 1
  26   14   15 2
  27   14   21 1
  28   15   16 1
  29   15   19 1
  30   16   17 1
  31   16   45 1
  32   16   46 1
  33   17   18 1
  34   17   47 1
  35   17   48 1
  36   18   22 1
  37   19   20 2
  38   20   21 1
  39   20   35 1
  40   22   23 1
  41   22   49 1
  42   22   50 1
  43   23   24 ar
  44   23   28 ar
  45   24   25 ar
  46   24   51 1
  47   25   26 ar
  48   25   33 1
  49   26   27 ar
  50   26   31 1
  51   27   28 ar
  52   27   29 1
  53   28   52 1
  54   29   30 1
  55   30   53 1
  56   30   54 1
  57   30   55 1
  58   31   32 1
  59   32   56 1
  60   32   57 1
  61   32   58 1
  62   33   34 1
  63   34   59 1
  64   34   60 1
  65   34   61 1
  66   35   62 1
  67   35   63 1

#	End of record

