#	Name: ASD09116285
#	Creating user name:	WinNT
#	Creation time:	15. 06. 2019 21:21

#	Modifying user name:	WinNT
#	Modification time:	15. 06. 2019 21:21

#	Program:	/corina/corina34_cracker 3.40 0067  02.08.2006

@<TRIPOS>MOLECULE
ASD09116285
  85   91    0    0    0
SMALL
NO_CHARGES


@<TRIPOS>ATOM
   1 N1            -0.0591     1.5278    -0.5286 N.2     
   2 N2            -0.0822     0.2490    -1.1084 N.pl3   
   3 C3             1.1948     1.9114    -0.4980 C.2     
   4 N4             1.9589     0.9474    -1.0249 N.2     
   5 C5             1.2028    -0.0628    -1.3981 C.2     
   6 N6             1.6430    -1.2354    -1.9820 N.pl3   
   7 C7            -1.2078    -0.5438    -1.3401 C.ar    
   8 N8             1.6572     3.1282     0.0030 N.pl3   
   9 C9             3.0333     3.3745     0.0839 C.ar    
  10 C10            3.5136     4.6731    -0.0230 C.ar    
  11 C11            3.9170     2.3207     0.2767 C.ar    
  12 C12            5.2755     2.5643     0.3565 C.ar    
  13 C13            5.7558     3.8643     0.2436 C.ar    
  14 C14            4.8709     4.9170     0.0562 C.ar    
  15 N15           -1.1865    -1.4611    -2.2955 N.ar    
  16 N16           -2.1983    -2.2101    -2.5557 N.ar    
  17 C17           -3.3307    -2.1062    -1.8787 C.ar    
  18 C18           -3.4385    -1.1798    -0.8376 C.ar    
  19 C19           -2.3547    -0.3736    -0.5605 C.ar    
  20 C20           -4.5158    -2.9302    -2.2119 C.ar    
  21 C21           -5.7517    -2.3013    -2.3700 C.ar    
  22 C22           -5.8379    -0.8041    -2.2539 C.3     
  23 C23           -5.7908    -0.3550    -0.7959 C.3     
  24 C24           -4.7036    -1.1074    -0.0331 C.3     
  25 C25           -4.4121    -4.3085    -2.3630 C.ar    
  26 C26           -5.5406    -5.0515    -2.6511 C.ar    
  27 C27           -6.7672    -4.4270    -2.7864 C.ar    
  28 C28           -6.8731    -3.0541    -2.6452 C.ar    
  29 N29            7.1327     4.1122     0.3244 N.3     
  30 C30            7.6278     4.7387    -0.9080 C.3     
  31 C31            9.1519     4.8610    -0.8429 C.3     
  32 C32            9.5397     5.7068     0.3732 C.3     
  33 C33            8.9708     5.0584     1.6383 C.3     
  34 C34            7.4520     4.9303     1.5013 C.3     
  35 N35           10.9994     5.7790     0.4740 N.am    
  36 F36            6.1359     1.5398     0.5444 F       
  37 C37           11.7941     4.7054     0.6200 C.2     
  38 C38           13.2196     5.2115     0.6828 C.3     
  39 C39           13.0833     6.7108     0.5500 C.ar    
  40 C40           11.7246     6.9700     0.4234 C.ar    
  41 C41           14.0014     7.7366     0.5331 C.ar    
  42 C42           13.5721     9.0449     0.3946 C.ar    
  43 C43           12.2213     9.3165     0.2736 C.ar    
  44 C44           11.2999     8.2900     0.2829 C.ar    
  45 O45           11.4366     3.5484     0.6886 O.2     
  46 H46            2.5890    -1.3678    -2.1508 H       
  47 H47            1.0060    -1.9261    -2.2230 H       
  48 H48            1.0256     3.8039     0.2954 H       
  49 H49            2.8256     5.4928    -0.1685 H       
  50 H50            3.5431     1.3113     0.3646 H       
  51 H51            5.2439     5.9267    -0.0314 H       
  52 H52           -2.3936     0.3671     0.2245 H       
  53 H53           -5.0027    -0.3560    -2.7922 H       
  54 H54           -6.7722    -0.4650    -2.7014 H       
  55 H55           -5.5824     0.7141    -0.7563 H       
  56 H56           -6.7564    -0.5492    -0.3292 H       
  57 H57           -5.0504    -2.1183     0.1812 H       
  58 H58           -4.5023    -0.5918     0.9059 H       
  59 H59           -3.4542    -4.7957    -2.2561 H       
  60 H60           -5.4648    -6.1221    -2.7712 H       
  61 H61           -7.6475    -5.0139    -3.0031 H       
  62 H62           -7.8341    -2.5728    -2.7509 H       
  63 H63            7.3490     4.1251    -1.7647 H       
  64 H64            7.1880     5.7304    -1.0133 H       
  65 H65            9.5931     3.8685    -0.7515 H       
  66 H66            9.5176     5.3403    -1.7510 H       
  67 H67            9.1311     6.7114     0.2635 H       
  68 H68            9.4092     4.0690     1.7688 H       
  69 H69            9.2072     5.6787     2.5029 H       
  70 H70            7.0130     5.9212     1.3847 H       
  71 H71            7.0455     4.4560     2.3945 H       
  72 H72           13.6750     4.9525     1.6386 H       
  73 H73           13.8052     4.8066    -0.1426 H       
  74 H74           15.0553     7.5206     0.6282 H       
  75 H75           14.2898     9.8518     0.3813 H       
  76 H76           11.8865    10.3376     0.1658 H       
  77 H77           10.2469     8.5101     0.1875 H       
  78 C78           21.0572    17.2447     8.4081 C.3     
  79 C79           21.0779    15.7149     8.3997 C.3     
  80 H80           22.0798    17.6220     8.4004 H       
  81 H81           20.5300    17.6058     7.5251 H       
  82 H82           20.5470    17.5963     9.3049 H       
  83 H83           21.6051    15.3538     9.2828 H       
  84 H84           20.0553    15.3376     8.4074 H       
  85 H85           21.5881    15.3634     7.5029 H       
@<TRIPOS>BOND
   1    1    2 1
   2    1    3 2
   3    2    7 1
   4    2    5 1
   5    3    4 1
   6    3    8 1
   7    4    5 2
   8    5    6 1
   9    6   46 1
  10    6   47 1
  11    7   15 ar
  12    7   19 ar
  13    8    9 1
  14    8   48 1
  15    9   10 ar
  16    9   11 ar
  17   10   14 ar
  18   10   49 1
  19   11   12 ar
  20   11   50 1
  21   12   13 ar
  22   12   36 1
  23   13   14 ar
  24   13   29 1
  25   14   51 1
  26   15   16 ar
  27   16   17 ar
  28   17   18 ar
  29   17   20 1
  30   18   19 ar
  31   18   24 1
  32   19   52 1
  33   20   21 ar
  34   20   25 ar
  35   21   22 1
  36   21   28 ar
  37   22   23 1
  38   22   53 1
  39   22   54 1
  40   23   24 1
  41   23   55 1
  42   23   56 1
  43   24   57 1
  44   24   58 1
  45   25   26 ar
  46   25   59 1
  47   26   27 ar
  48   26   60 1
  49   27   28 ar
  50   27   61 1
  51   28   62 1
  52   29   30 1
  53   29   34 1
  54   30   31 1
  55   30   63 1
  56   30   64 1
  57   31   32 1
  58   31   65 1
  59   31   66 1
  60   32   33 1
  61   32   35 1
  62   32   67 1
  63   33   34 1
  64   33   68 1
  65   33   69 1
  66   34   70 1
  67   34   71 1
  68   35   37 am
  69   35   40 1
  70   37   38 1
  71   37   45 2
  72   38   39 1
  73   38   72 1
  74   38   73 1
  75   39   40 ar
  76   39   41 ar
  77   40   44 ar
  78   41   42 ar
  79   41   74 1
  80   42   43 ar
  81   42   75 1
  82   43   44 ar
  83   43   76 1
  84   44   77 1
  85   78   79 1
  86   78   80 1
  87   78   81 1
  88   78   82 1
  89   79   83 1
  90   79   84 1
  91   79   85 1

#	End of record

