#	Name: ASD07931872
#	Creating user name:	WinNT
#	Creation time:	15. 06. 2019 21:13

#	Modifying user name:	WinNT
#	Modification time:	15. 06. 2019 21:13

#	Program:	/corina/corina34_cracker 3.40 0067  02.08.2006

@<TRIPOS>MOLECULE
ASD07931872
  34   33    0    0    0
SMALL
NO_CHARGES


@<TRIPOS>ATOM
   1 C1            -0.0162     1.3436     0.0094 C.2     
   2 N2             0.0021    -0.0041     0.0020 N.am    
   3 O3             1.0277     1.9654     0.0028 O.2     
   4 O4            -1.1912     2.0008     0.0186 O.3     
   5 C5             1.8007    -0.8662     1.4173 C.3     
   6 C6             1.2806    -0.7192    -0.0140 C.3     
   7 C7             1.0816    -2.1059    -0.6292 C.3     
   8 C8             0.5614    -1.9589    -2.0606 C.3     
   9 C9             0.4838    -3.2858    -2.6931 C.1     
  10 C10            0.4219    -4.3441    -3.1976 C.1     
  11 O11            0.1345    -2.8407     0.1487 O.3     
  12 C12           -1.1349     3.4517     0.0262 C.3     
  13 C13           -0.4003     3.9401    -1.2239 C.3     
  14 C14           -2.5565     4.0172     0.0360 C.3     
  15 C15           -0.3885     3.9266     1.2745 C.3     
  16 H16           -0.8313    -0.5005     0.0073 H       
  17 H17            1.9425     0.1217     1.8556 H       
  18 H18            1.0783    -1.4267     2.0107 H       
  19 H19            2.7520    -1.3983     1.4054 H       
  20 H20            2.0030    -0.1587    -0.6074 H       
  21 H21            2.0328    -2.6380    -0.6412 H       
  22 H22           -0.4301    -1.5066    -2.0422 H       
  23 H23            1.2399    -1.3240    -2.6303 H       
  24 H24            0.3665    -5.2906    -3.6487 H       
  25 H25           -0.7369    -2.4249     0.2030 H       
  26 H26           -0.9321     3.6018    -2.1132 H       
  27 H27           -0.3581     5.0293    -1.2182 H       
  28 H28            0.6125     3.5373    -1.2309 H       
  29 H29           -3.0798     3.6692     0.9266 H       
  30 H30           -2.5142     5.1064     0.0417 H       
  31 H31           -3.0883     3.6789    -0.8533 H       
  32 H32            0.6243     3.5237     1.2675 H       
  33 H33           -0.3462     5.0157     1.2802 H       
  34 H34           -0.9118     3.5786     2.1651 H       
@<TRIPOS>BOND
   1    1    2 am
   2    1    3 2
   3    1    4 1
   4    2    6 1
   5    2   16 1
   6    4   12 1
   7    5    6 1
   8    5   17 1
   9    5   18 1
  10    5   19 1
  11    6    7 1
  12    6   20 1
  13    7    8 1
  14    7   11 1
  15    7   21 1
  16    8    9 1
  17    8   22 1
  18    8   23 1
  19    9   10 3
  20   10   24 1
  21   11   25 1
  22   12   13 1
  23   12   15 1
  24   12   14 1
  25   13   26 1
  26   13   27 1
  27   13   28 1
  28   14   29 1
  29   14   30 1
  30   14   31 1
  31   15   32 1
  32   15   33 1
  33   15   34 1

#	End of record

