#	Name: ASD01816803
#	Creating user name:	WinNT
#	Creation time:	15. 06. 2019 19:36

#	Modifying user name:	WinNT
#	Modification time:	15. 06. 2019 19:36

#	Program:	/corina/corina34_cracker 3.40 0067  02.08.2006

@<TRIPOS>MOLECULE
ASD01816803
  50   53    0    0    0
SMALL
NO_CHARGES


@<TRIPOS>ATOM
   1 C1            -0.0282     1.3752     0.0698 C.ar    
   2 C2             0.0047    -0.0119     0.1914 C.ar    
   3 C3             1.1834    -0.6945     0.1156 C.ar    
   4 C4             2.3828     0.0096    -0.0880 C.ar    
   5 C5             2.3525     1.4234    -0.2123 C.ar    
   6 C6             1.1139     2.0915    -0.1282 C.ar    
   7 C7             3.6178    -0.6596    -0.1711 C.ar    
   8 C8             4.7443     0.0856    -0.3695 C.ar    
   9 C9             4.6467     1.4804    -0.4843 C.ar    
  10 N10            3.4846     2.0990    -0.4056 N.ar    
  11 C11            5.8781     2.2772    -0.6996 C.2     
  12 N12            5.8021     3.6181    -0.8121 N.am    
  13 O13            6.9560     1.7214    -0.7747 O.2     
  14 C14            7.0190     4.4055    -1.0249 C.3     
  15 C15            7.3458     4.4456    -2.5191 C.3     
  16 C16            6.8006     5.8304    -0.5122 C.3     
  17 C17            8.0715     6.6528    -0.7344 C.3     
  18 C18            8.3983     6.6929    -2.2286 C.3     
  19 C19            8.6167     5.2680    -2.7413 C.3     
  20 O20            6.4954     5.7930     0.8833 O.3     
  21 C21            3.6950    -2.1592    -0.0439 C.3     
  22 C22            5.1288    -2.6020    -0.1828 C.ar    
  23 C23            5.9383    -2.7098     0.9314 C.ar    
  24 N24            7.1943    -3.0966     0.8184 N.ar    
  25 C25            7.7255    -3.3946    -0.3521 C.ar    
  26 C26            6.9749    -3.3097    -1.5116 C.ar    
  27 C27            5.6500    -2.9118    -1.4304 C.ar    
  28 Cl28           9.3847    -3.8981    -0.4385 Cl      
  29 F29            1.1978    -2.0400     0.2361 F       
  30 F30            1.0596     3.4365    -0.2431 F       
  31 H31           -0.9752     1.8912     0.1290 H       
  32 H32           -0.9157    -0.5547     0.3483 H       
  33 H33            5.7079    -0.3973    -0.4375 H       
  34 H34            4.9416     4.0618    -0.7522 H       
  35 H35            7.8472     3.9477    -0.4840 H       
  36 H36            7.5014     3.4305    -2.8843 H       
  37 H37            6.5175     4.9034    -3.0600 H       
  38 H38            5.9724     6.2882    -1.0531 H       
  39 H39            7.9159     7.6679    -0.3692 H       
  40 H40            8.8997     6.1950    -0.1935 H       
  41 H41            7.5701     7.1507    -2.7695 H       
  42 H42            9.3037     7.2787    -2.3869 H       
  43 H43            9.4449     4.8102    -2.2004 H       
  44 H44            8.8495     5.2965    -3.8057 H       
  45 H45            6.3443     6.6635     1.2764 H       
  46 H46            3.3144    -2.4612     0.9319 H       
  47 H47            3.0944    -2.6217    -0.8271 H       
  48 H48            5.5382    -2.4742     1.9065 H       
  49 H49            7.4149    -3.5541    -2.4672 H       
  50 H50            5.0400    -2.8368    -2.3184 H       
@<TRIPOS>BOND
   1    1    2 ar
   2    1    6 ar
   3    1   31 1
   4    2    3 ar
   5    2   32 1
   6    3    4 ar
   7    3   29 1
   8    4    5 ar
   9    4    7 ar
  10    5    6 ar
  11    5   10 ar
  12    6   30 1
  13    7    8 ar
  14    7   21 1
  15    8    9 ar
  16    8   33 1
  17    9   10 ar
  18    9   11 1
  19   11   12 am
  20   11   13 2
  21   12   14 1
  22   12   34 1
  23   14   15 1
  24   14   16 1
  25   14   35 1
  26   15   19 1
  27   15   36 1
  28   15   37 1
  29   16   17 1
  30   16   20 1
  31   16   38 1
  32   17   18 1
  33   17   39 1
  34   17   40 1
  35   18   19 1
  36   18   41 1
  37   18   42 1
  38   19   43 1
  39   19   44 1
  40   20   45 1
  41   21   22 1
  42   21   46 1
  43   21   47 1
  44   22   23 ar
  45   22   27 ar
  46   23   24 ar
  47   23   48 1
  48   24   25 ar
  49   25   26 ar
  50   25   28 1
  51   26   27 ar
  52   26   49 1
  53   27   50 1

#	End of record

