#	Name: ASD00990024
#	Creating user name:	WinNT
#	Creation time:	15. 06. 2019 18:54

#	Modifying user name:	WinNT
#	Modification time:	15. 06. 2019 18:54

#	Program:	/corina/corina34_cracker 3.40 0067  02.08.2006

@<TRIPOS>MOLECULE
ASD00990024
  44   47    0    0    0
SMALL
NO_CHARGES


@<TRIPOS>ATOM
   1 C1            -0.0184     1.5028     0.0103 C.2     
   2 C2             0.0021    -0.0041     0.0020 C.3     
   3 O3             1.0236     2.1234     0.0037 O.2     
   4 N4            -1.1946     2.1607     0.0195 N.am    
   5 C5            -1.2145     3.6256     0.0275 C.3     
   6 C6            -1.2280     4.1356    -1.3905 C.2     
   7 N7            -0.1714     4.3143    -2.1283 N.2     
   8 C8            -0.5404     4.7823    -3.3485 C.ar    
   9 C9            -1.9414     4.8925    -3.3378 C.ar    
  10 N10           -2.3472     4.4705    -2.0875 N.pl3   
  11 C11            0.1681     5.1368    -4.4991 C.ar    
  12 C12           -0.5037     5.5862    -5.6009 C.ar    
  13 C13           -1.8867     5.6952    -5.5908 C.ar    
  14 C14           -2.6067     5.3510    -4.4663 C.ar    
  15 C15            0.2656     5.9678    -6.8393 C.3     
  16 F16            0.4033     4.8478    -7.6663 F       
  17 F17           -0.4245     6.9725    -7.5259 F       
  18 F18            1.5322     6.4372    -6.4753 F       
  19 C19           -2.4532     1.4111     0.0214 C.3     
  20 O20            3.3683    -1.1453     0.6622 O.3     
  21 C21            2.1551    -0.7353     1.0643 C.2     
  22 N22            1.3897    -0.4735    -0.0138 N.am    
  23 C23            2.1611    -0.7321    -1.1480 C.ar    
  24 C24            3.4090    -1.1558    -0.6929 C.ar    
  25 C25            1.9115    -0.6444    -2.5099 C.ar    
  26 C26            2.9052    -0.9788    -3.4140 C.ar    
  27 C27            4.1441    -1.3995    -2.9610 C.ar    
  28 C28            4.3977    -1.4885    -1.6059 C.ar    
  29 O29            1.8013    -0.6186     2.2218 O.2     
  30 F30            0.7026    -0.2344    -2.9524 F       
  31 Cl31           2.5971    -0.8710    -5.1191 Cl      
  32 H32           -0.4983    -0.3791     0.8948 H       
  33 H33           -0.5153    -0.3696    -0.8850 H       
  34 H34           -2.1068     3.9740     0.5475 H       
  35 H35           -0.3271     3.9982     0.5392 H       
  36 H36           -3.2609     4.4237    -1.7650 H       
  37 H37            1.2449     5.0562    -4.5177 H       
  38 H38           -2.4029     6.0521    -6.4698 H       
  39 H39           -3.6832     5.4374    -4.4638 H       
  40 H40           -2.7605     1.2195     1.0495 H       
  41 H41           -3.2232     1.9925    -0.4857 H       
  42 H42           -2.3124     0.4633    -0.4983 H       
  43 H43            4.9160    -1.6592    -3.6703 H       
  44 H44            5.3660    -1.8169    -1.2579 H       
@<TRIPOS>BOND
   1    1    2 1
   2    1    3 2
   3    1    4 am
   4    2   22 1
   5    2   32 1
   6    2   33 1
   7    4    5 1
   8    4   19 1
   9    5    6 1
  10    5   34 1
  11    5   35 1
  12    6    7 2
  13    6   10 1
  14    7    8 1
  15    8    9 ar
  16    8   11 ar
  17    9   10 1
  18    9   14 ar
  19   10   36 1
  20   11   12 ar
  21   11   37 1
  22   12   13 ar
  23   12   15 1
  24   13   14 ar
  25   13   38 1
  26   14   39 1
  27   15   16 1
  28   15   17 1
  29   15   18 1
  30   19   40 1
  31   19   41 1
  32   19   42 1
  33   20   21 1
  34   20   24 1
  35   21   22 am
  36   21   29 2
  37   22   23 1
  38   23   24 ar
  39   23   25 ar
  40   24   28 ar
  41   25   26 ar
  42   25   30 1
  43   26   27 ar
  44   26   31 1
  45   27   28 ar
  46   27   43 1
  47   28   44 1

#	End of record

