#	Name: ASD02030752
#	Creating user name:	WinNT
#	Creation time:	15. 06. 2019 20:16

#	Modifying user name:	WinNT
#	Modification time:	15. 06. 2019 20:16

#	Program:	/corina/corina34_cracker 3.40 0067  02.08.2006

@<TRIPOS>MOLECULE
ASD02030752
  62   64    0    0    0
SMALL
NO_CHARGES


@<TRIPOS>ATOM
   1 C1             0.3342     1.3674     0.3192 C.ar    
   2 C2             0.4396    -0.0059     0.4087 C.ar    
   3 C3             1.6731    -0.5951     0.6195 C.ar    
   4 C4             2.8072     0.1873     0.7421 C.ar    
   5 C5             2.7134     1.5615     0.6542 C.ar    
   6 C6             1.4734     2.1604     0.4415 C.ar    
   7 C7             1.3664     3.6373     0.3457 C.ar    
   8 C8             0.0318     5.6106     0.0502 C.ar    
   9 C9             0.1256     4.2365     0.1386 C.ar    
  10 C10            2.5055     4.4303     0.4680 C.ar    
  11 C11            2.4002     5.8035     0.3780 C.ar    
  12 C12            1.1667     6.3928     0.1672 C.ar    
  13 C13            1.0580     7.8927     0.0697 C.3     
  14 C14            1.9075     8.3906    -1.1013 C.3     
  15 N15            1.7087     9.8321    -1.2707 N.am    
  16 S16            2.7531    10.7071    -2.2119 S.o2    
  17 C17            4.3495    10.5739    -1.3606 C.3     
  18 C18            5.4088    11.3580    -2.1377 C.3     
  19 C19            4.2237    11.1484     0.0518 C.3     
  20 C20            1.5597     8.5258     1.3691 C.3     
  21 O21            2.7859    10.0035    -3.4461 O.2     
  22 O22            2.2591    12.0375    -2.1399 O.2     
  23 C23            1.7819    -2.0951     0.7164 C.3     
  24 C24            2.0255    -2.6798    -0.6764 C.3     
  25 N25            2.1312    -4.1379    -0.5822 N.am    
  26 C26            1.0906    -4.9822    -0.6880 C.2     
  27 C27            1.5620    -6.4112    -0.5319 C.3     
  28 C28            2.9688    -6.2799     0.0963 C.3     
  29 C29            3.3877    -4.8649    -0.3665 C.3     
  30 O30           -0.0591    -4.6471    -0.8801 O.2     
  31 H31           -0.6288     1.8262     0.1501 H       
  32 H32           -0.4428    -0.6215     0.3144 H       
  33 H33            3.7677    -0.2779     0.9074 H       
  34 H34            3.5994     2.1715     0.7505 H       
  35 H35           -0.9294     6.0761    -0.1106 H       
  36 H36           -0.7612     3.6267     0.0472 H       
  37 H37            3.4690     3.9713     0.6334 H       
  38 H38            3.2825     6.4191     0.4727 H       
  39 H39            0.0169     8.1718    -0.0921 H       
  40 H40            2.9595     8.1903    -0.8981 H       
  41 H41            1.6085     7.8730    -2.0129 H       
  42 H42            0.9653    10.2741    -0.8314 H       
  43 H43            4.6435     9.5260    -1.3018 H       
  44 H44            5.1147    12.4060    -2.1966 H       
  45 H45            6.3680    11.2780    -1.6262 H       
  46 H46            5.4984    10.9487    -3.1440 H       
  47 H47            3.8458    12.1693    -0.0035 H       
  48 H48            3.5337    10.5366     0.6328 H       
  49 H49            5.2021    11.1487     0.5324 H       
  50 H50            0.9545     8.1711     2.2034 H       
  51 H51            2.6008     8.2467     1.5310 H       
  52 H52            1.4811     9.6107     1.2986 H       
  53 H53            2.6129    -2.3576     1.3710 H       
  54 H54            0.8560    -2.5009     1.1240 H       
  55 H55            1.1944    -2.4172    -1.3311 H       
  56 H56            2.9513    -2.2739    -1.0840 H       
  57 H57            0.8970    -6.9618     0.1334 H       
  58 H58            1.6224    -6.9012    -1.5037 H       
  59 H59            2.9176    -6.3398     1.1835 H       
  60 H60            3.6464    -7.0346    -0.3030 H       
  61 H61            3.9596    -4.9248    -1.2925 H       
  62 H62            3.9746    -4.3727     0.4090 H       
@<TRIPOS>BOND
   1    1    2 ar
   2    1    6 ar
   3    1   31 1
   4    2    3 ar
   5    2   32 1
   6    3    4 ar
   7    3   23 1
   8    4    5 ar
   9    4   33 1
  10    5    6 ar
  11    5   34 1
  12    6    7 1
  13    7   10 ar
  14    7    9 ar
  15    8    9 ar
  16    8   12 ar
  17    8   35 1
  18    9   36 1
  19   10   11 ar
  20   10   37 1
  21   11   12 ar
  22   11   38 1
  23   12   13 1
  24   13   14 1
  25   13   20 1
  26   13   39 1
  27   14   15 1
  28   14   40 1
  29   14   41 1
  30   15   16 am
  31   15   42 1
  32   16   17 1
  33   16   21 2
  34   16   22 2
  35   17   18 1
  36   17   19 1
  37   17   43 1
  38   18   44 1
  39   18   45 1
  40   18   46 1
  41   19   47 1
  42   19   48 1
  43   19   49 1
  44   20   50 1
  45   20   51 1
  46   20   52 1
  47   23   24 1
  48   23   53 1
  49   23   54 1
  50   24   25 1
  51   24   55 1
  52   24   56 1
  53   25   26 am
  54   25   29 1
  55   26   27 1
  56   26   30 2
  57   27   28 1
  58   27   57 1
  59   27   58 1
  60   28   29 1
  61   28   59 1
  62   28   60 1
  63   29   61 1
  64   29   62 1

#	End of record

