#	Name: ASD00431471
#	Creating user name:	WinNT
#	Creation time:	15. 06. 2019 18:35

#	Modifying user name:	WinNT
#	Modification time:	15. 06. 2019 18:35

#	Program:	/corina/corina34_cracker 3.40 0067  02.08.2006

@<TRIPOS>MOLECULE
ASD00431471
  51   53    0    0    0
SMALL
NO_CHARGES


@<TRIPOS>ATOM
   1 N1            -0.0710     1.2696     0.1509 N.am    
   2 C2            -0.0070    -0.0765     0.1273 C.2     
   3 O3             1.0712    -0.6325     0.0454 O.2     
   4 N4            -1.1382    -0.8062     0.1944 N.am    
   5 C5            -1.0686    -2.2693     0.1688 C.3     
   6 C6            -2.4819    -2.8487     0.2574 C.3     
   7 C7             1.1586     2.0627     0.0779 C.3     
   8 C8             1.5562     2.2536    -1.3872 C.3     
   9 O9            -0.1349     4.2003     0.5323 O.3     
  10 N10           -0.0168     5.2137     1.1883 N.2     
  11 C11            1.1123     5.1886     1.8539 C.2     
  12 N12            1.7273     4.0209     1.5505 N.2     
  13 C13            0.9267     3.4086     0.7149 C.2     
  14 S14            3.1389     6.1918     3.6515 S.3     
  15 C15            2.7996     7.7235     4.3305 C.2     
  16 N16            1.6581     8.1647     3.8985 N.2     
  17 C17            0.9980     7.3978     3.0594 C.2     
  18 C18            1.6183     6.2362     2.7627 C.2     
  19 O19            3.6062     8.3821     5.1961 O.3     
  20 C20            3.9697    10.3206     6.5330 C.ar    
  21 C21            3.2724     9.6553     5.5372 C.ar    
  22 C22            2.2261    10.3070     4.8901 C.ar    
  23 C23            1.9215    11.6025     5.2694 C.ar    
  24 C24            2.6642    12.2054     6.2758 C.ar    
  25 N25            3.6517    11.5562     6.8690 N.ar    
  26 O26            2.3736    13.4762     6.6548 O.3     
  27 C27            3.1731    14.0418     7.6954 C.3     
  28 C28            4.3831    14.7489     7.0817 C.3     
  29 C29            2.3398    15.0514     8.4873 C.3     
  30 H30           -0.9314     1.7132     0.2121 H       
  31 H31           -1.9983    -0.3626     0.2597 H       
  32 H32           -0.6002    -2.5946    -0.7601 H       
  33 H33           -0.4785    -2.6199     1.0155 H       
  34 H34           -2.9504    -2.5234     1.1863 H       
  35 H35           -3.0721    -2.4981    -0.5893 H       
  36 H36           -2.4302    -3.9373     0.2383 H       
  37 H37            1.9579     1.5434     0.6066 H       
  38 H38            0.7569     2.7729    -1.9159 H       
  39 H39            2.4710     2.8437    -1.4414 H       
  40 H40            1.7239     1.2801    -1.8479 H       
  41 H41            0.0404     7.6735     2.6430 H       
  42 H42            4.7797     9.8203     7.0428 H       
  43 H43            1.6655     9.8132     4.1101 H       
  44 H44            1.1164    12.1381     4.7884 H       
  45 H45            3.5146    13.2501     8.3623 H       
  46 H46            4.9930    15.1803     7.8755 H       
  47 H47            4.9768    14.0296     6.5176 H       
  48 H48            4.0416    15.5406     6.4149 H       
  49 H49            1.4778    14.5476     8.9245 H       
  50 H50            2.9497    15.4828     9.2811 H       
  51 H51            1.9983    15.8431     7.8205 H       
@<TRIPOS>BOND
   1    1    2 am
   2    1    7 1
   3    1   30 1
   4    2    3 2
   5    2    4 am
   6    4    5 1
   7    4   31 1
   8    5    6 1
   9    5   32 1
  10    5   33 1
  11    6   34 1
  12    6   35 1
  13    6   36 1
  14    7    8 1
  15    7   13 1
  16    7   37 1
  17    8   38 1
  18    8   39 1
  19    8   40 1
  20    9   10 1
  21    9   13 1
  22   10   11 2
  23   11   12 1
  24   11   18 1
  25   12   13 2
  26   14   15 1
  27   14   18 1
  28   15   16 2
  29   15   19 1
  30   16   17 1
  31   17   18 2
  32   17   41 1
  33   19   21 1
  34   20   21 ar
  35   20   25 ar
  36   20   42 1
  37   21   22 ar
  38   22   23 ar
  39   22   43 1
  40   23   24 ar
  41   23   44 1
  42   24   25 ar
  43   24   26 1
  44   26   27 1
  45   27   28 1
  46   27   29 1
  47   27   45 1
  48   28   46 1
  49   28   47 1
  50   28   48 1
  51   29   49 1
  52   29   50 1
  53   29   51 1

#	End of record

