#	Name: ASD00843264
#	Creating user name:	WinNT
#	Creation time:	15. 06. 2019 18:46

#	Modifying user name:	WinNT
#	Modification time:	15. 06. 2019 18:46

#	Program:	/corina/corina34_cracker 3.40 0067  02.08.2006

@<TRIPOS>MOLECULE
ASD00843264
  93   98    0    0    0
SMALL
NO_CHARGES


@<TRIPOS>ATOM
   1 N1             1.0058     1.1651    -0.3196 N.ar    
   2 C2             1.1711    -0.1206    -0.5818 C.ar    
   3 C3             1.0332    -1.0711     0.4220 C.ar    
   4 C4             0.7197    -0.6556     1.7041 C.ar    
   5 C5             0.5544     0.7028     1.9381 C.ar    
   6 C6             0.7065     1.5916     0.8928 C.ar    
   7 C7             1.2220    -2.5351     0.1184 C.3     
   8 C8             0.8762    -3.3765     1.3285 C.2     
   9 C9             0.3679    -2.9466    -1.0824 C.3     
  10 C10           -1.0695    -2.5715    -0.8287 C.2     
  11 N11           -2.0270    -2.9430    -1.7013 N.am    
  12 O12           -1.3645    -1.9354     0.1609 O.2     
  13 C13           -3.4137    -2.4891    -1.5291 C.3     
  14 C14           -4.3363    -3.7120    -1.5284 C.3     
  15 C15           -4.0956    -4.5284    -2.8003 C.3     
  16 C16           -2.6456    -5.0173    -2.8279 C.3     
  17 C17           -1.7028    -3.8045    -2.8465 C.3     
  18 N18           -5.0022    -5.6842    -2.8189 N.3     
  19 C19           -4.8832    -6.4265    -4.0816 C.3     
  20 C20           -5.7823    -7.6640    -4.0294 C.3     
  21 N21           -7.1720    -7.2471    -3.7958 N.3     
  22 C22           -7.2910    -6.5047    -2.5331 C.3     
  23 C23           -6.3919    -5.2672    -2.5853 C.3     
  24 C24           -8.0786    -8.4028    -3.8144 C.3     
  25 O25           -0.2030    -3.4381     1.8784 O.2     
  26 N26            1.9897    -4.0419     1.6791 N.am    
  27 C27            2.6805    -2.8392    -0.1364 C.ar    
  28 C28            3.0663    -3.7492     0.8402 C.ar    
  29 C29            3.5765    -2.3981    -1.0839 C.ar    
  30 C30            4.8810    -2.8624    -1.0705 C.ar    
  31 C31            5.2786    -3.7703    -0.1018 C.ar    
  32 C32            4.3796    -4.2134     0.8495 C.ar    
  33 Cl33           6.0146    -2.3096    -2.2635 Cl      
  34 F34            6.5509    -4.2242    -0.0874 F       
  35 C35            1.6608    -6.6901     2.3520 C.ar    
  36 C36            0.3844    -6.9412     1.8704 C.ar    
  37 C37            2.6088    -7.6952     2.3499 C.ar    
  38 C38            2.2863    -8.9501     1.8678 C.ar    
  39 C39            1.0146    -9.2030     1.3871 C.ar    
  40 C40            0.0631    -8.2017     1.3876 C.ar    
  41 H41            0.7651   -10.1842     1.0111 H       
  42 O42           -0.5499    -5.9544     1.8719 O.3     
  43 C43           -1.8430    -6.2845     1.3611 C.3     
  44 C44           -9.4631    -7.9729    -3.3256 C.3     
  45 C45          -10.4073    -9.1766    -3.3449 C.3     
  46 O46            1.4779    -0.5151    -1.8431 O.3     
  47 C47            1.5647     0.5059    -2.8391 C.3     
  48 C48            2.0080    -0.1128    -4.1664 C.3     
  49 F49            3.2199    -0.7877    -3.9846 F       
  50 F50            1.0340    -1.0142    -4.6091 F       
  51 S51            2.0749    -5.0888     2.9593 S.o2    
  52 O52            3.4426    -5.1456     3.3408 O.2     
  53 O53            1.0339    -4.7166     3.8520 O.2     
  54 H54            0.6058    -1.3718     2.5044 H       
  55 H55            0.3090     1.0604     2.9272 H       
  56 H56            0.5793     2.6494     1.0696 H       
  57 H57            0.7251    -2.4335    -1.9753 H       
  58 H58            0.4418    -4.0242    -1.2286 H       
  59 H59           -3.5095    -1.9585    -0.5818 H       
  60 H60           -3.6860    -1.8264    -2.3506 H       
  61 H61           -4.1231    -4.3281    -0.6548 H       
  62 H62           -5.3753    -3.3839    -1.4979 H       
  63 H63           -4.2851    -3.9044    -3.6736 H       
  64 H64           -2.4483    -5.6210    -1.9421 H       
  65 H65           -2.4813    -5.6181    -3.7223 H       
  66 H66           -1.8370    -3.2516    -3.7762 H       
  67 H67           -0.6699    -4.1435    -2.7663 H       
  68 H68           -5.1913    -5.7878    -4.9093 H       
  69 H69           -3.8478    -6.7351    -4.2258 H       
  70 H70           -5.7178    -8.2005    -4.9760 H       
  71 H71           -5.4571    -8.3159    -3.2186 H       
  72 H72           -8.3264    -6.1961    -2.3889 H       
  73 H73           -6.9829    -7.1434    -1.7054 H       
  74 H74           -6.4564    -4.7307    -1.6387 H       
  75 H75           -6.7171    -4.6154    -3.3961 H       
  76 H76           -8.1556    -8.7878    -4.8313 H       
  77 H77           -7.6878    -9.1817    -3.1597 H       
  78 H78            3.2622    -1.6908    -1.8371 H       
  79 H79            4.6959    -4.9207     1.6019 H       
  80 H80            3.6027    -7.5003     2.7247 H       
  81 H81            3.0290    -9.7343     1.8663 H       
  82 H82           -0.9301    -8.3998     1.0127 H       
  83 H83           -1.7532    -6.6012     0.3220 H       
  84 H84           -2.2712    -7.0942     1.9520 H       
  85 H85           -2.4910    -5.4100     1.4196 H       
  86 H86           -9.3861    -7.5879    -2.3087 H       
  87 H87           -9.8539    -7.1940    -3.9803 H       
  88 H88          -10.4844    -9.5616    -4.3618 H       
  89 H89          -10.0165    -9.9555    -2.6902 H       
  90 H90          -11.3937    -8.8703    -2.9967 H       
  91 H91            0.5888     0.9748    -2.9648 H       
  92 H92            2.2910     1.2566    -2.5277 H       
  93 H93            2.1384     0.6747    -4.9087 H       
@<TRIPOS>BOND
   1    1    2 ar
   2    1    6 ar
   3    2    3 ar
   4    2   46 1
   5    3    4 ar
   6    3    7 1
   7    4    5 ar
   8    4   54 1
   9    5    6 ar
  10    5   55 1
  11    6   56 1
  12    7    8 1
  13    7    9 1
  14    7   27 1
  15    8   25 2
  16    8   26 am
  17    9   10 1
  18    9   57 1
  19    9   58 1
  20   10   11 am
  21   10   12 2
  22   11   13 1
  23   11   17 1
  24   13   14 1
  25   13   59 1
  26   13   60 1
  27   14   15 1
  28   14   61 1
  29   14   62 1
  30   15   16 1
  31   15   18 1
  32   15   63 1
  33   16   17 1
  34   16   64 1
  35   16   65 1
  36   17   66 1
  37   17   67 1
  38   18   19 1
  39   18   23 1
  40   19   20 1
  41   19   68 1
  42   19   69 1
  43   20   21 1
  44   20   70 1
  45   20   71 1
  46   21   22 1
  47   21   24 1
  48   22   23 1
  49   22   72 1
  50   22   73 1
  51   23   74 1
  52   23   75 1
  53   24   44 1
  54   24   76 1
  55   24   77 1
  56   26   51 am
  57   26   28 1
  58   27   28 ar
  59   27   29 ar
  60   28   32 ar
  61   29   30 ar
  62   29   78 1
  63   30   31 ar
  64   30   33 1
  65   31   32 ar
  66   31   34 1
  67   32   79 1
  68   35   36 ar
  69   35   37 ar
  70   35   51 1
  71   36   42 1
  72   36   40 ar
  73   37   38 ar
  74   37   80 1
  75   38   39 ar
  76   38   81 1
  77   39   40 ar
  78   39   41 1
  79   40   82 1
  80   42   43 1
  81   43   83 1
  82   43   84 1
  83   43   85 1
  84   44   45 1
  85   44   86 1
  86   44   87 1
  87   45   88 1
  88   45   89 1
  89   45   90 1
  90   46   47 1
  91   47   48 1
  92   47   91 1
  93   47   92 1
  94   48   49 1
  95   48   50 1
  96   48   93 1
  97   51   52 2
  98   51   53 2

#	End of record

