#	Name: ASD02039286
#	Creating user name:	WinNT
#	Creation time:	15. 06. 2019 20:18

#	Modifying user name:	WinNT
#	Modification time:	15. 06. 2019 20:18

#	Program:	/corina/corina34_cracker 3.40 0067  02.08.2006

@<TRIPOS>MOLECULE
ASD02039286
  59   62    0    0    0
SMALL
NO_CHARGES


@<TRIPOS>ATOM
   1 C1             0.1359     1.1851    -0.3161 C.ar    
   2 C2             0.5179    -0.0928     0.0504 C.ar    
   3 C3            -0.3861    -1.1374    -0.0178 C.ar    
   4 C4            -1.6780    -0.9087    -0.4528 C.ar    
   5 C5            -2.0681     0.3795    -0.8232 C.ar    
   6 C6            -1.1530     1.4273    -0.7467 C.ar    
   7 C7            -3.4525     0.6327    -1.2909 C.ar    
   8 C8            -4.2038     1.6704    -0.7431 C.ar    
   9 N9            -5.4331     1.9005    -1.1543 N.ar    
  10 C10           -6.0032     1.1619    -2.0981 C.ar    
  11 C11           -5.3128     0.1057    -2.6929 C.ar    
  12 C12           -4.0193    -0.1639    -2.2923 C.ar    
  13 C13            1.1278     2.3170    -0.2391 C.3     
  14 N14            1.9438     2.3349    -1.4556 N.am    
  15 C15            1.4501     3.0089    -2.6590 C.3     
  16 C16            3.1488     1.7312    -1.4677 C.2     
  17 C17            3.6006     0.9649    -0.2933 C.2     
  18 C18            4.7335     0.2095    -0.2105 C.2     
  19 C19            2.4329     4.1081    -3.0674 C.3     
  20 N20            2.9683     0.8866     0.9055 N.2     
  21 C21            3.6612     0.1204     1.6975 C.2     
  22 N22            4.7641    -0.3174     1.0362 N.pl3   
  23 O23            3.8632     1.8192    -2.4480 O.2     
  24 C24            5.8003    -1.2018     1.5750 C.3     
  25 F25           -2.5607    -1.9293    -0.5197 F       
  26 C26            1.3201     1.9929    -3.7956 C.3     
  27 C27           -7.3905     1.4625    -2.5250 C.2     
  28 C28           -8.2564     2.4866    -2.0461 C.2     
  29 N29           -9.3668     2.3645    -2.7110 N.2     
  30 O30           -9.3226     1.4520    -3.5020 O.3     
  31 C31           -8.1391     0.8258    -3.4760 C.2     
  32 C32           -7.9474     3.5075    -0.9816 C.3     
  33 C33           -7.7200    -0.3514    -4.3184 C.3     
  34 H34            1.5264    -0.2758     0.3908 H       
  35 H35           -0.0819    -2.1332     0.2689 H       
  36 H36           -1.4491     2.4260    -1.0320 H       
  37 H37           -3.7731     2.2926     0.0275 H       
  38 H38           -5.7830    -0.4913    -3.4603 H       
  39 H39           -3.4609    -0.9751    -2.7357 H       
  40 H40            0.5935     3.2626    -0.1460 H       
  41 H41            1.7723     2.1770     0.6288 H       
  42 H42            0.4752     3.4511    -2.4537 H       
  43 H43            5.4656     0.0601    -0.9903 H       
  44 H44            3.4236     3.6758    -3.2079 H       
  45 H45            2.1003     4.5649    -3.9995 H       
  46 H46            2.4750     4.8666    -2.2858 H       
  47 H47            3.4027    -0.1251     2.7170 H       
  48 H48            5.5323    -2.2393     1.3755 H       
  49 H49            6.7547    -0.9752     1.0996 H       
  50 H50            5.8850    -1.0489     2.6509 H       
  51 H51            0.5859     1.2348    -3.5230 H       
  52 H52            0.9964     2.5025    -4.7031 H       
  53 H53            2.2854     1.5177    -3.9703 H       
  54 H54           -7.5130     4.3941    -1.4436 H       
  55 H55           -8.8663     3.7813    -0.4631 H       
  56 H56           -7.2395     3.0857    -0.2682 H       
  57 H57           -8.5400    -0.6371    -4.9772 H       
  58 H58           -6.8510    -0.0787    -4.9172 H       
  59 H59           -7.4658    -1.1900    -3.6701 H       
@<TRIPOS>BOND
   1    1    2 ar
   2    1   13 1
   3    1    6 ar
   4    2    3 ar
   5    2   34 1
   6    3    4 ar
   7    3   35 1
   8    4    5 ar
   9    4   25 1
  10    5    6 ar
  11    5    7 1
  12    6   36 1
  13    7    8 ar
  14    7   12 ar
  15    8    9 ar
  16    8   37 1
  17    9   10 ar
  18   10   11 ar
  19   10   27 1
  20   11   12 ar
  21   11   38 1
  22   12   39 1
  23   13   14 1
  24   13   40 1
  25   13   41 1
  26   14   15 1
  27   14   16 am
  28   15   26 1
  29   15   19 1
  30   15   42 1
  31   16   17 1
  32   16   23 2
  33   17   18 2
  34   17   20 1
  35   18   22 1
  36   18   43 1
  37   19   44 1
  38   19   45 1
  39   19   46 1
  40   20   21 2
  41   21   22 1
  42   21   47 1
  43   22   24 1
  44   24   48 1
  45   24   49 1
  46   24   50 1
  47   26   51 1
  48   26   52 1
  49   26   53 1
  50   27   28 1
  51   27   31 2
  52   28   29 2
  53   28   32 1
  54   29   30 1
  55   30   31 1
  56   31   33 1
  57   32   54 1
  58   32   55 1
  59   32   56 1
  60   33   57 1
  61   33   58 1
  62   33   59 1

#	End of record

