#	Name: ASD03730967
#	Creating user name:	WinNT
#	Creation time:	15. 06. 2019 20:45

#	Modifying user name:	WinNT
#	Modification time:	15. 06. 2019 20:45

#	Program:	/corina/corina34_cracker 3.40 0067  02.08.2006

@<TRIPOS>MOLECULE
ASD03730967
  70   76    0    0    0
SMALL
NO_CHARGES


@<TRIPOS>ATOM
   1 C1             0.0262     1.5079    -0.1248 C.2     
   2 C2             0.0676     0.0350    -0.2460 C.ar    
   3 C3             1.2938    -0.6312    -0.2833 C.ar    
   4 C4             1.3254    -2.0055    -0.3960 C.ar    
   5 C5             0.1451    -2.7239    -0.4724 C.ar    
   6 C6            -1.0734    -2.0699    -0.4360 C.ar    
   7 C7            -1.1191    -0.6959    -0.3177 C.ar    
   8 O8             1.0614     2.1415    -0.0575 O.2     
   9 N9            -1.1592     2.1485    -0.0947 N.am    
  10 C10            2.6482    -2.7264    -0.4364 C.3     
  11 O11           -0.9321    -3.7667     5.7110 O.3     
  12 C12           -1.0032    -4.1302     7.1024 C.3     
  13 O13           -0.0867    -5.2349     7.2148 O.3     
  14 C14            0.8339    -5.0488     6.2234 C.ar    
  15 C15            0.3130    -4.1467     5.2985 C.ar    
  16 C16            2.0951    -5.5842     6.0328 C.ar    
  17 C17            2.8507    -5.2294     4.9193 C.ar    
  18 C18            2.3164    -4.3337     3.9981 C.ar    
  19 C19            1.0617    -3.7934     4.1885 C.ar    
  20 O20            4.1053    -5.6221     4.5560 O.3     
  21 C21            3.3435    -4.1745     2.9092 C.3     
  22 C22            4.3023    -5.3474     3.1556 C.3     
  23 N23            3.0572    -3.0733     0.9269 N.am    
  24 C24            2.7321    -4.2295     1.5389 C.2     
  25 C25            4.0479    -2.8521     2.9778 C.ar    
  26 C26            4.7879    -2.2175     3.9504 C.ar    
  27 C27            5.3242    -0.9657     3.7068 C.ar    
  28 C28            5.1148    -0.3532     2.4845 C.ar    
  29 C29            4.3735    -0.9842     1.5075 C.ar    
  30 C30            3.8302    -2.2447     1.7438 C.ar    
  31 O31            2.0749    -5.1366     1.0737 O.2     
  32 C32           -1.2002     3.6080     0.0254 C.3     
  33 N33           -2.7296     5.5514     0.1576 N.3     
  34 C34           -2.6482     4.0886    -0.0888 C.3     
  35 C35           -3.1632     3.9081    -1.5329 C.3     
  36 C36           -4.0536     5.1396    -1.7978 C.3     
  37 C37           -4.0017     5.9606    -0.4915 C.3     
  38 C38           -2.7558     5.8422     1.5973 C.3     
  39 C39           -2.4539     7.3249     1.8237 C.3     
  40 H40            2.2157    -0.0716    -0.2244 H       
  41 H41            0.1753    -3.7998    -0.5612 H       
  42 H42           -1.9909    -2.6363    -0.4961 H       
  43 H43           -2.0710    -0.1869    -0.2853 H       
  44 H44           -1.9851     1.6432    -0.1524 H       
  45 H45            2.5482    -3.6362    -1.0283 H       
  46 H46            3.4006    -2.0799    -0.8881 H       
  47 H47           -0.6818    -3.3004     7.7319 H       
  48 H48           -2.0138    -4.4427     7.3654 H       
  49 H49            2.4959    -6.2822     6.7528 H       
  50 H50            0.6620    -3.0933     3.4698 H       
  51 H51            5.3332    -5.0523     2.9602 H       
  52 H52            4.0236    -6.2091     2.5491 H       
  53 H53            4.9500    -2.6977     4.9041 H       
  54 H54            5.9054    -0.4681     4.4690 H       
  55 H55            5.5334     0.6241     2.2944 H       
  56 H56            4.2139    -0.4993     0.5558 H       
  57 H57           -0.7941     3.9046     0.9925 H       
  58 H58           -0.6051     4.0549    -0.7710 H       
  59 H59           -3.2835     3.5490     0.6135 H       
  60 H60           -2.3279     3.8872    -2.2329 H       
  61 H61           -3.7492     2.9927    -1.6142 H       
  62 H62           -3.6553     5.7232    -2.6278 H       
  63 H63           -5.0767     4.8287    -2.0092 H       
  64 H64           -4.8504     5.7141     0.1464 H       
  65 H65           -3.9891     7.0277    -0.7134 H       
  66 H66           -3.7420     5.6069     1.9975 H       
  67 H67           -2.0042     5.2368     2.1039 H       
  68 H68           -1.4677     7.5601     1.4234 H       
  69 H69           -3.2055     7.9302     1.3170 H       
  70 H70           -2.4734     7.5406     2.8920 H       
@<TRIPOS>BOND
   1    1    2 1
   2    1    8 2
   3    1    9 am
   4    2    3 ar
   5    2    7 ar
   6    3    4 ar
   7    3   40 1
   8    4    5 ar
   9    4   10 1
  10    5    6 ar
  11    5   41 1
  12    6    7 ar
  13    6   42 1
  14    7   43 1
  15    9   32 1
  16    9   44 1
  17   10   23 1
  18   10   45 1
  19   10   46 1
  20   11   12 1
  21   11   15 1
  22   12   13 1
  23   12   47 1
  24   12   48 1
  25   13   14 1
  26   14   15 ar
  27   14   16 ar
  28   15   19 ar
  29   16   17 ar
  30   16   49 1
  31   17   18 ar
  32   17   20 1
  33   18   19 ar
  34   18   21 1
  35   19   50 1
  36   20   22 1
  37   21   22 1
  38   21   24 1
  39   21   25 1
  40   22   51 1
  41   22   52 1
  42   23   24 am
  43   23   30 1
  44   24   31 2
  45   25   26 ar
  46   25   30 ar
  47   26   27 ar
  48   26   53 1
  49   27   28 ar
  50   27   54 1
  51   28   29 ar
  52   28   55 1
  53   29   30 ar
  54   29   56 1
  55   32   34 1
  56   32   57 1
  57   32   58 1
  58   33   34 1
  59   33   37 1
  60   33   38 1
  61   34   35 1
  62   34   59 1
  63   35   36 1
  64   35   60 1
  65   35   61 1
  66   36   37 1
  67   36   62 1
  68   36   63 1
  69   37   64 1
  70   37   65 1
  71   38   39 1
  72   38   66 1
  73   38   67 1
  74   39   68 1
  75   39   69 1
  76   39   70 1

#	End of record

