#	Name: ASD01411132
#	Creating user name:	WinNT
#	Creation time:	15. 06. 2019 19:19

#	Modifying user name:	WinNT
#	Modification time:	15. 06. 2019 19:19

#	Program:	/corina/corina34_cracker 3.40 0067  02.08.2006

@<TRIPOS>MOLECULE
ASD01411132
  69   71    0    0    0
SMALL
NO_CHARGES


@<TRIPOS>ATOM
   1 C1            -0.1919     1.0786    -0.1942 C.2     
   2 C2            -0.1893    -0.2940    -0.2544 C.2     
   3 C3             1.0175    -0.8750     0.0085 C.2     
   4 S4             2.2167     0.3640     0.3503 S.3     
   5 C5             1.0251     1.6363     0.1217 C.2     
   6 C6             1.2692    -2.2848     0.0070 C.1     
   7 C7             1.4755    -3.4405     0.0057 C.1     
   8 C8             1.7342    -4.8896     0.0041 C.3     
   9 C9             3.2038    -5.1457     0.3441 C.3     
  10 C10            0.8437    -5.5677     1.0472 C.3     
  11 C11            1.4239    -5.4615    -1.3806 C.3     
  12 C12            1.2792     3.0219     0.2434 C.2     
  13 O13            0.3623     3.8183     0.1617 O.2     
  14 O14            2.5388     3.4615     0.4503 O.3     
  15 N15           -1.3331     1.8436    -0.4390 N.am    
  16 C16           -2.0063     2.3976     0.5888 C.2     
  17 C17           -3.2088     3.2657     0.3215 C.3     
  18 O18           -1.6443     2.1974     1.7290 O.2     
  19 C19           -3.9867     5.4260    -0.6636 C.3     
  20 C20           -2.7659     4.5446    -0.3921 C.3     
  21 C21           -3.8811     3.6281     1.6472 C.3     
  22 C22           -5.1019     4.5095     1.3757 C.3     
  23 C23           -4.6590     5.7884     0.6621 C.3     
  24 C24           -5.8798     6.6698     0.3907 C.3     
  25 C25           -1.7994     2.0446    -1.8132 C.3     
  26 O26            0.4491     2.6628    -2.2081 O.2     
  27 C27           -0.6793     2.6247    -2.6509 C.2     
  28 C28           -2.2120     0.7004    -2.4180 C.3     
  29 N29           -0.9295     3.0934    -3.8742 N.am    
  30 C30           -3.2201     0.9002    -3.5351 C.3     
  31 C31           -2.2958     3.0591    -4.4206 C.3     
  32 C32           -2.6540     1.6091    -4.7519 C.3     
  33 C33            0.1626     3.6463    -4.6791 C.3     
  34 H34           -1.0728    -0.8683    -0.4909 H       
  35 H35            3.4248    -4.7382     1.3306 H       
  36 H36            3.3953    -6.2187     0.3429 H       
  37 H37            3.8381    -4.6625    -0.3990 H       
  38 H38           -0.2033    -5.3853     0.8050 H       
  39 H39            1.0353    -6.6408     1.0461 H       
  40 H40            1.0648    -5.1603     2.0338 H       
  41 H41            2.0582    -4.9784    -2.1238 H       
  42 H42            1.6154    -6.5346    -1.3818 H       
  43 H43            0.3769    -5.2791    -1.6228 H       
  44 H44            2.6132     4.4231     0.5203 H       
  45 H45           -3.9150     2.7244    -0.3080 H       
  46 H46           -3.6712     6.3372    -1.1720 H       
  47 H47           -4.6929     4.8847    -1.2931 H       
  48 H48           -2.0597     5.0860     0.2374 H       
  49 H49           -2.2869     4.2865    -1.3366 H       
  50 H50           -4.1966     2.7170     2.1556 H       
  51 H51           -3.1748     4.1695     2.2767 H       
  52 H52           -5.8081     3.9682     0.7462 H       
  53 H53           -5.5809     4.7677     2.3202 H       
  54 H54           -3.9528     6.3298     1.2916 H       
  55 H55           -6.5861     6.1285    -0.2388 H       
  56 H56           -6.3588     6.9280     1.3351 H       
  57 H57           -5.5644     7.5809    -0.1177 H       
  58 H58           -2.6518     2.7240    -1.8150 H       
  59 H59           -1.3293     0.2002    -2.8164 H       
  60 H60           -2.6560     0.0784    -1.6409 H       
  61 H61           -3.5951    -0.0755    -3.8440 H       
  62 H62           -4.0556     1.4845    -3.1494 H       
  63 H63           -2.9953     3.4493    -3.6813 H       
  64 H64           -2.3426     3.6635    -5.3265 H       
  65 H65           -1.7582     1.0862    -5.0869 H       
  66 H66           -3.3952     1.5966    -5.5510 H       
  67 H67            1.0940     3.5893    -4.1158 H       
  68 H68            0.2601     3.0737    -5.6014 H       
  69 H69           -0.0539     4.6873    -4.9189 H       
@<TRIPOS>BOND
   1    1    2 1
   2    1    5 2
   3    1   15 1
   4    2    3 2
   5    2   34 1
   6    3    4 1
   7    3    6 1
   8    4    5 1
   9    5   12 1
  10    6    7 3
  11    7    8 1
  12    8    9 1
  13    8   10 1
  14    8   11 1
  15    9   35 1
  16    9   36 1
  17    9   37 1
  18   10   38 1
  19   10   39 1
  20   10   40 1
  21   11   41 1
  22   11   42 1
  23   11   43 1
  24   12   13 2
  25   12   14 1
  26   14   44 1
  27   15   16 am
  28   15   25 1
  29   16   18 2
  30   16   17 1
  31   17   21 1
  32   17   20 1
  33   17   45 1
  34   19   20 1
  35   19   23 1
  36   19   46 1
  37   19   47 1
  38   20   48 1
  39   20   49 1
  40   21   22 1
  41   21   50 1
  42   21   51 1
  43   22   23 1
  44   22   52 1
  45   22   53 1
  46   23   24 1
  47   23   54 1
  48   24   55 1
  49   24   56 1
  50   24   57 1
  51   25   28 1
  52   25   27 1
  53   25   58 1
  54   26   27 2
  55   27   29 am
  56   28   30 1
  57   28   59 1
  58   28   60 1
  59   29   31 1
  60   29   33 1
  61   30   32 1
  62   30   61 1
  63   30   62 1
  64   31   32 1
  65   31   63 1
  66   31   64 1
  67   32   65 1
  68   32   66 1
  69   33   67 1
  70   33   68 1
  71   33   69 1

#	End of record

