#	Name: ASD02039454
#	Creating user name:	WinNT
#	Creation time:	15. 06. 2019 20:18

#	Modifying user name:	WinNT
#	Modification time:	15. 06. 2019 20:18

#	Program:	/corina/corina34_cracker 3.40 0067  02.08.2006

@<TRIPOS>MOLECULE
ASD02039454
  55   58    0    0    0
SMALL
NO_CHARGES


@<TRIPOS>ATOM
   1 C1             0.1499     1.1862     0.0762 C.ar    
   2 C2             0.4316    -0.1672     0.1949 C.ar    
   3 C3             1.2614     2.2020     0.0151 C.3     
   4 N4             1.7337     2.3265    -1.3661 N.am    
   5 C5             1.2464     3.3007    -2.1597 C.2     
   6 C6             0.1673     4.1772    -1.6720 C.2     
   7 C7            -0.4871     5.1300    -2.3966 C.2     
   8 N8            -0.3610     4.1799    -0.4215 N.2     
   9 C9            -1.2924     5.0872    -0.3599 C.2     
  10 N10           -1.3969     5.6966    -1.5695 N.pl3   
  11 O11            1.6975     3.4563    -3.2784 O.2     
  12 C12           -2.3268     6.7742    -1.9165 C.3     
  13 C13            2.7358     1.3920    -1.8846 C.3     
  14 C14           -0.6106    -1.0746     0.2485 C.ar    
  15 C15           -2.1744     0.6131     0.0633 C.ar    
  16 C16           -1.1751     1.5820     0.0094 C.ar    
  17 C17           -3.5990     1.0210    -0.0071 C.ar    
  18 C18           -4.6055     0.0586     0.0462 C.ar    
  19 C19           -5.9291     0.4438    -0.0193 C.ar    
  20 C20           -6.2576     1.7822    -0.1379 C.ar    
  21 C21           -5.2627     2.7417    -0.1917 C.ar    
  22 C22           -3.9358     2.3685    -0.1209 C.ar    
  23 N23           -1.8630    -0.6706     0.1884 N.ar    
  24 C24            2.3153     0.7012    -3.1926 C.3     
  25 C25            3.7688     0.8799    -3.6621 C.3     
  26 C26            3.8517     2.0725    -2.6948 C.3     
  27 C27           -7.7047     2.1966    -0.2094 C.3     
  28 O28           -8.1968     2.4381     1.1103 O.3     
  29 C29           -9.5677     2.8390     1.1551 C.3     
  30 F30          -10.3655     1.8360     0.5942 F       
  31 F31           -9.9489     3.0490     2.4847 F       
  32 F32           -9.7308     4.0245     0.4304 F       
  33 H33            1.4549    -0.5087     0.2446 H       
  34 H34            0.8910     3.1670     0.3608 H       
  35 H35            2.0843     1.8789     0.6528 H       
  36 H36           -0.3126     5.3840    -3.4317 H       
  37 H37           -1.8880     5.3163     0.5113 H       
  38 H38           -1.8593     7.7374    -1.7118 H       
  39 H39           -2.5785     6.7101    -2.9751 H       
  40 H40           -3.2343     6.6768    -1.3207 H       
  41 H41            3.1042     0.7022    -1.1253 H       
  42 H42           -0.3948    -2.1288     0.3405 H       
  43 H43           -1.4300     2.6265    -0.0925 H       
  44 H44           -4.3501    -0.9868     0.1381 H       
  45 H45           -6.7100    -0.3012     0.0219 H       
  46 H46           -5.5248     3.7853    -0.2851 H       
  47 H47           -3.1598     3.1184    -0.1626 H       
  48 H48            2.0237    -0.3409    -3.0618 H       
  49 H49            1.5944     1.2734    -3.7764 H       
  50 H50            4.4209     0.0502    -3.3893 H       
  51 H51            3.8571     1.1618    -4.7113 H       
  52 H52            3.5508     3.0196    -3.1425 H       
  53 H53            4.8005     2.1374    -2.1621 H       
  54 H54           -7.7931     3.1069    -0.8024 H       
  55 H55           -8.2877     1.4018    -0.6748 H       
@<TRIPOS>BOND
   1    1    2 ar
   2    1    3 1
   3    1   16 ar
   4    2   14 ar
   5    2   33 1
   6    3    4 1
   7    3   34 1
   8    3   35 1
   9    4    5 am
  10    4   13 1
  11    5    6 1
  12    5   11 2
  13    6    7 2
  14    6    8 1
  15    7   10 1
  16    7   36 1
  17    8    9 2
  18    9   10 1
  19    9   37 1
  20   10   12 1
  21   12   38 1
  22   12   39 1
  23   12   40 1
  24   13   24 1
  25   13   26 1
  26   13   41 1
  27   14   23 ar
  28   14   42 1
  29   15   16 ar
  30   15   17 1
  31   15   23 ar
  32   16   43 1
  33   17   18 ar
  34   17   22 ar
  35   18   19 ar
  36   18   44 1
  37   19   20 ar
  38   19   45 1
  39   20   21 ar
  40   20   27 1
  41   21   22 ar
  42   21   46 1
  43   22   47 1
  44   24   25 1
  45   24   48 1
  46   24   49 1
  47   25   26 1
  48   25   50 1
  49   25   51 1
  50   26   52 1
  51   26   53 1
  52   27   28 1
  53   27   54 1
  54   27   55 1
  55   28   29 1
  56   29   30 1
  57   29   31 1
  58   29   32 1

#	End of record

