#	Name: ASD06170231
#	Creating user name:	WinNT
#	Creation time:	15. 06. 2019 21:05

#	Modifying user name:	WinNT
#	Modification time:	15. 06. 2019 21:05

#	Program:	/corina/corina34_cracker 3.40 0067  02.08.2006

@<TRIPOS>MOLECULE
ASD06170231
  62   66    0    0    0
SMALL
NO_CHARGES


@<TRIPOS>ATOM
   1 C1            -0.0955     1.6380    -0.4622 C.2     
   2 C2             0.3071     0.3555    -0.9283 C.2     
   3 C3             1.6448     0.0018    -0.7580 C.2     
   4 C4             2.4965     0.9271    -0.1434 C.2     
   5 N5             2.0428     2.0849     0.2554 N.2     
   6 N6             0.8189     2.4415     0.1141 N.am    
   7 C7            -0.6526    -0.5633    -1.5658 C.2     
   8 O8            -0.2596    -1.5949    -2.0763 O.2     
   9 N9            -1.9658    -0.2605    -1.5831 N.am    
  10 C10            0.4221     3.7020     0.5720 C.ar    
  11 C11           -0.6643     3.8210     1.4296 C.ar    
  12 C12           -1.0534     5.0672     1.8798 C.ar    
  13 C13           -0.3629     6.1960     1.4778 C.ar    
  14 C14            0.7191     6.0812     0.6242 C.ar    
  15 C15            1.1171     4.8375     0.1747 C.ar    
  16 O16           -1.2508     2.0064    -0.5872 O.2     
  17 C17            3.9497     0.5840     0.0603 C.3     
  18 C18           -2.8715    -1.1088    -2.2324 C.ar    
  19 C19           -4.0642    -0.6001    -2.7333 C.ar    
  20 C20           -4.9568    -1.4378    -3.3734 C.ar    
  21 C21           -4.6628    -2.7866    -3.5157 C.ar    
  22 C22           -3.4724    -3.2944    -3.0159 C.ar    
  23 C23           -2.5761    -2.4570    -2.3810 C.ar    
  24 O24           -5.5419    -3.6108    -4.1450 O.3     
  25 N25           -5.5893    -3.5706    -8.2690 N.ar    
  26 C26           -4.8012    -2.7539    -7.6100 C.ar    
  27 C27           -4.7575    -2.7392    -6.2216 C.ar    
  28 C28           -5.5630    -3.6032    -5.5007 C.ar    
  29 C29           -6.4078    -4.4776    -6.2207 C.ar    
  30 C30           -7.2529    -5.3814    -5.5597 C.ar    
  31 C31           -8.0561    -6.2111    -6.2874 C.ar    
  32 C32           -8.0445    -6.1693    -7.6889 C.ar    
  33 C33           -7.2315    -5.2998    -8.3571 C.ar    
  34 C34           -6.3941    -4.4326    -7.6362 C.ar    
  35 O35           -8.8530    -7.0057    -8.3913 O.3     
  36 C36           -8.7972    -6.9168    -9.8164 C.3     
  37 O37           -8.8753    -7.0872    -5.6469 O.3     
  38 C38           -8.8409    -7.0819    -4.2183 C.3     
  39 Cl39          -4.4322     1.0870    -2.5540 Cl      
  40 H40            2.0129    -0.9577    -1.0900 H       
  41 H41           -2.2836     0.5450    -1.1459 H       
  42 H42           -1.2042     2.9399     1.7436 H       
  43 H43           -1.8982     5.1604     2.5462 H       
  44 H44           -0.6695     7.1694     1.8311 H       
  45 H45            1.2561     6.9647     0.3122 H       
  46 H46            1.9651     4.7481    -0.4880 H       
  47 H47            4.5241     0.9049    -0.8088 H       
  48 H48            4.3219     1.0924     0.9497 H       
  49 H49            4.0543    -0.4935     0.1872 H       
  50 H50           -5.8836    -1.0432    -3.7628 H       
  51 H51           -3.2447    -4.3442    -3.1268 H       
  52 H52           -1.6476    -2.8520    -1.9960 H       
  53 H53           -4.1685    -2.0750    -8.1624 H       
  54 H54           -4.0981    -2.0561    -5.7070 H       
  55 H55           -7.2676    -5.4208    -4.4805 H       
  56 H56           -7.2322    -5.2787    -9.4369 H       
  57 H57           -9.4897    -7.6367   -10.2528 H       
  58 H58           -9.0749    -5.9101   -10.1289 H       
  59 H59           -7.7845    -7.1358   -10.1548 H       
  60 H60           -9.5396    -7.8256    -3.8352 H       
  61 H61           -7.8333    -7.3209    -3.8782 H       
  62 H62           -9.1235    -6.0951    -3.8517 H       
@<TRIPOS>BOND
   1    1    2 1
   2    1    6 am
   3    1   16 2
   4    2    3 2
   5    2    7 1
   6    3    4 1
   7    3   40 1
   8    4    5 2
   9    4   17 1
  10    5    6 1
  11    6   10 1
  12    7    8 2
  13    7    9 am
  14    9   18 1
  15    9   41 1
  16   10   11 ar
  17   10   15 ar
  18   11   12 ar
  19   11   42 1
  20   12   13 ar
  21   12   43 1
  22   13   14 ar
  23   13   44 1
  24   14   15 ar
  25   14   45 1
  26   15   46 1
  27   17   47 1
  28   17   48 1
  29   17   49 1
  30   18   19 ar
  31   18   23 ar
  32   19   20 ar
  33   19   39 1
  34   20   21 ar
  35   20   50 1
  36   21   22 ar
  37   21   24 1
  38   22   23 ar
  39   22   51 1
  40   23   52 1
  41   24   28 1
  42   25   26 ar
  43   25   34 ar
  44   26   27 ar
  45   26   53 1
  46   27   28 ar
  47   27   54 1
  48   28   29 ar
  49   29   30 ar
  50   29   34 ar
  51   30   31 ar
  52   30   55 1
  53   31   32 ar
  54   31   37 1
  55   32   33 ar
  56   32   35 1
  57   33   34 ar
  58   33   56 1
  59   35   36 1
  60   36   57 1
  61   36   58 1
  62   36   59 1
  63   37   38 1
  64   38   60 1
  65   38   61 1
  66   38   62 1

#	End of record

