#	Name: ASD03070001
#	Creating user name:	WinNT
#	Creation time:	15. 06. 2019 20:26

#	Modifying user name:	WinNT
#	Modification time:	15. 06. 2019 20:26

#	Program:	/corina/corina34_cracker 3.40 0067  02.08.2006

@<TRIPOS>MOLECULE
ASD03070001
  23   22    0    0    0
SMALL
NO_CHARGES


@<TRIPOS>ATOM
   1 C1            -0.0244     1.3795     0.0961 C.2     
   2 N2             0.0993     0.0111     0.1430 N.pl3   
   3 N3             1.0411     2.1302     0.0856 N.2     
   4 N4            -1.2718     1.9560     0.0547 N.pl3   
   5 C5             2.3642     1.5266     0.2630 C.3     
   6 C6             3.1772     1.6931    -1.0223 C.3     
   7 C7             4.5590     1.0628    -0.8370 C.3     
   8 C8             5.3720     1.2293    -2.1224 C.3     
   9 N9             6.6987     0.6241    -1.9445 N.3     
  10 H10            0.9703    -0.4013     0.0323 H       
  11 H11           -0.6845    -0.5421     0.2867 H       
  12 H12           -2.0647     1.3972     0.0585 H       
  13 H13           -1.3591     2.9215     0.0216 H       
  14 H14            2.8810     2.0197     1.0863 H       
  15 H15            2.2525     0.4658     0.4874 H       
  16 H16            2.6604     1.2000    -1.8456 H       
  17 H17            3.2889     2.7539    -1.2467 H       
  18 H18            5.0758     1.5559    -0.0137 H       
  19 H19            4.4472     0.0020    -0.6126 H       
  20 H20            4.8551     0.7362    -2.9457 H       
  21 H21            5.4837     2.2901    -2.3468 H       
  22 H22            6.6207    -0.3444    -1.6723 H       
  23 H23            7.2554     0.7210    -2.7804 H       
@<TRIPOS>BOND
   1    1    2 1
   2    1    3 2
   3    1    4 1
   4    2   10 1
   5    2   11 1
   6    3    5 1
   7    4   12 1
   8    4   13 1
   9    5    6 1
  10    5   14 1
  11    5   15 1
  12    6    7 1
  13    6   16 1
  14    6   17 1
  15    7    8 1
  16    7   18 1
  17    7   19 1
  18    8    9 1
  19    8   20 1
  20    8   21 1
  21    9   22 1
  22    9   23 1

#	End of record

