#	Name: ASD00311485
#	Creating user name:	WinNT
#	Creation time:	15. 06. 2019 18:34

#	Modifying user name:	WinNT
#	Modification time:	15. 06. 2019 18:34

#	Program:	/corina/corina34_cracker 3.40 0067  02.08.2006

@<TRIPOS>MOLECULE
ASD00311485
  44   48    0    0    0
SMALL
NO_CHARGES


@<TRIPOS>ATOM
   1 C1            -0.0167     1.3777     0.0096 C.2     
   2 C2             0.0021    -0.0041     0.0020 C.2     
   3 C3             1.2588    -0.6767    -0.0131 C.2     
   4 C4             2.4315     0.0672    -0.0199 C.2     
   5 C5             2.3574     1.4751    -0.0117 C.2     
   6 N6             1.1648     2.0902     0.0022 N.am    
   7 C7            -1.3433    -0.5752     0.0118 C.2     
   8 C8            -2.3228     0.3262     0.0260 C.2     
   9 S9            -1.6792     1.9562     0.0358 S.3     
  10 O10            3.3823     2.1372    -0.0175 O.2     
  11 C11           -1.5956    -2.0347     0.0059 C.ar    
  12 C12           -2.4709    -2.5954     0.9369 C.ar    
  13 C13           -2.7053    -3.9525     0.9311 C.ar    
  14 C14           -2.0679    -4.7664    -0.0051 C.ar    
  15 C15           -1.1926    -4.2065    -0.9355 C.ar    
  16 C16           -0.9625    -2.8487    -0.9344 C.ar    
  17 C17           -3.1927    -6.7995     0.9139 C.ar    
  18 C18           -2.3205    -6.2277    -0.0110 C.ar    
  19 C19           -1.6884    -7.0541    -0.9443 C.ar    
  20 C20           -1.9582    -8.4115    -0.9084 C.ar    
  21 C21           -2.8361    -8.9018     0.0408 C.ar    
  22 N22           -3.4177    -8.0972     0.9095 N.ar    
  23 C23            4.1351    -1.3829    -1.1313 C.ar    
  24 C24            3.7477    -0.6121    -0.0352 C.ar    
  25 C25            4.6228    -0.4910     1.0490 C.ar    
  26 C26            5.8410    -1.1451     0.9853 C.ar    
  27 C27            6.1511    -1.8905    -0.1376 C.ar    
  28 N28            5.3054    -1.9868    -1.1455 N.ar    
  29 O29            1.3087    -2.0292    -0.0204 O.3     
  30 H30            1.1326     3.0597     0.0077 H       
  31 H31           -3.3754     0.0847     0.0347 H       
  32 H32           -2.9643    -1.9653     1.6622 H       
  33 H33           -3.3824    -4.3865     1.6519 H       
  34 H34           -0.6990    -4.8372    -1.6601 H       
  35 H35           -0.2884    -2.4145    -1.6579 H       
  36 H36           -3.6846    -6.1735     1.6437 H       
  37 H37           -1.0071    -6.6441    -1.6751 H       
  38 H38           -1.4882    -9.0803    -1.6143 H       
  39 H39           -3.0488    -9.9602     0.0716 H       
  40 H40            3.4677    -1.4891    -1.9737 H       
  41 H41            4.3551     0.0982     1.9136 H       
  42 H42            6.5421    -1.0738     1.8037 H       
  43 H43            7.1010    -2.4017    -0.1903 H       
  44 H44            2.2060    -2.3896    -0.0307 H       
@<TRIPOS>BOND
   1    1    2 2
   2    1    6 1
   3    1    9 1
   4    2    3 1
   5    2    7 1
   6    3    4 2
   7    3   29 1
   8    4    5 1
   9    4   24 1
  10    5    6 am
  11    5   10 2
  12    6   30 1
  13    7    8 2
  14    7   11 1
  15    8    9 1
  16    8   31 1
  17   11   12 ar
  18   11   16 ar
  19   12   13 ar
  20   12   32 1
  21   13   14 ar
  22   13   33 1
  23   14   15 ar
  24   14   18 1
  25   15   16 ar
  26   15   34 1
  27   16   35 1
  28   17   18 ar
  29   17   22 ar
  30   17   36 1
  31   18   19 ar
  32   19   20 ar
  33   19   37 1
  34   20   21 ar
  35   20   38 1
  36   21   22 ar
  37   21   39 1
  38   23   24 ar
  39   23   28 ar
  40   23   40 1
  41   24   25 ar
  42   25   26 ar
  43   25   41 1
  44   26   27 ar
  45   26   42 1
  46   27   28 ar
  47   27   43 1
  48   29   44 1

#	End of record

