#	Name: ASD01870120
#	Creating user name:	WinNT
#	Creation time:	15. 06. 2019 19:38

#	Modifying user name:	WinNT
#	Modification time:	15. 06. 2019 19:38

#	Program:	/corina/corina34_cracker 3.40 0067  02.08.2006

@<TRIPOS>MOLECULE
ASD01870120
  27   28    0    0    0
SMALL
NO_CHARGES


@<TRIPOS>ATOM
   1 C1            -0.0168     1.3750    -0.0148 C.ar    
   2 C2             0.0024    -0.0054    -0.0248 C.ar    
   3 C3             1.2080    -0.6899    -0.0353 C.ar    
   4 C4             2.4005     0.0025    -0.0353 C.ar    
   5 C5             2.3945     1.3997    -0.0253 C.ar    
   6 C6             1.1734     2.0871    -0.0151 C.ar    
   7 O7             1.1554     3.4437    -0.0057 O.3     
   8 Cl8            1.2164    -2.4258    -0.0478 Cl      
   9 C9             3.6663     2.1469    -0.0248 C.2     
  10 O10            3.6571     3.3628    -0.0160 O.2     
  11 N11            4.8386     1.4819    -0.0340 N.am    
  12 C12            6.0413     2.1865    -0.1464 C.ar    
  13 C13            7.1752     1.7380     0.5183 C.ar    
  14 C14            6.1057     3.3330    -0.9277 C.ar    
  15 C15            7.2959     4.0270    -1.0365 C.ar    
  16 C16            8.4226     3.5797    -0.3681 C.ar    
  17 C17            8.3620     2.4358     0.4058 C.ar    
  18 Cl18           7.3782     5.4602    -2.0125 Cl      
  19 H19           -0.9599     1.9011    -0.0112 H       
  20 H20           -0.9272    -0.5553    -0.0241 H       
  21 H21            3.3376    -0.5343    -0.0428 H       
  22 H22            1.1463     3.8431    -0.8863 H       
  23 H23            4.8480     0.5145     0.0372 H       
  24 H24            7.1290     0.8445     1.1232 H       
  25 H25            5.2269     3.6816    -1.4497 H       
  26 H26            9.3518     4.1232    -0.4548 H       
  27 H27            9.2428     2.0894     0.9260 H       
@<TRIPOS>BOND
   1    1    2 ar
   2    1    6 ar
   3    1   19 1
   4    2    3 ar
   5    2   20 1
   6    3    4 ar
   7    3    8 1
   8    4    5 ar
   9    4   21 1
  10    5    6 ar
  11    5    9 1
  12    6    7 1
  13    7   22 1
  14    9   10 2
  15    9   11 am
  16   11   12 1
  17   11   23 1
  18   12   13 ar
  19   12   14 ar
  20   13   17 ar
  21   13   24 1
  22   14   15 ar
  23   14   25 1
  24   15   16 ar
  25   15   18 1
  26   16   17 ar
  27   16   26 1
  28   17   27 1

#	End of record

