#	Name: ASD05503045
#	Creating user name:	WinNT
#	Creation time:	15. 06. 2019 21:01

#	Modifying user name:	WinNT
#	Modification time:	15. 06. 2019 21:01

#	Program:	/corina/corina34_cracker 3.40 0067  02.08.2006

@<TRIPOS>MOLECULE
ASD05503045
  38   39    0    0    0
SMALL
NO_CHARGES


@<TRIPOS>ATOM
   1 C1            -0.1492     1.4101     0.2169 C.ar    
   2 C2            -0.1088     0.0338    -0.0094 C.ar    
   3 C3             1.1285    -0.5639    -0.2280 C.ar    
   4 C4             2.2695     0.2257    -0.2131 C.ar    
   5 N5             2.1863     1.5297     0.0062 N.ar    
   6 C6             1.0283     2.1272     0.2165 C.ar    
   7 N7            -1.2804    -0.7246    -0.0158 N.am    
   8 C8            -2.4225    -0.1964    -0.4986 C.2     
   9 O9            -2.4519     0.9631    -0.8531 O.2     
  10 C10           -3.6629    -1.0464    -0.5980 C.3     
  11 C11           -4.8086    -0.2114    -1.1734 C.3     
  12 C12           -6.0679    -1.0744    -1.2743 C.3     
  13 N13            3.5156    -0.3588    -0.4305 N.am    
  14 C14            4.6154     0.4144    -0.5251 C.2     
  15 C15            5.9182    -0.1928    -0.8672 C.ar    
  16 O16            4.5355     1.6114    -0.3290 O.2     
  17 C17            6.0136    -1.5671    -1.0931 C.ar    
  18 C18            7.2329    -2.1275    -1.4126 C.ar    
  19 C19            8.3605    -1.3313    -1.5091 C.ar    
  20 C20            8.2742     0.0313    -1.2868 C.ar    
  21 C21            7.0593     0.6066    -0.9718 C.ar    
  22 Br22           6.9429     2.4695    -0.6681 Br      
  23 H23           -1.0924     1.9084     0.3859 H       
  24 H24            1.1999    -1.6267    -0.4064 H       
  25 H25            1.0029     3.1927     0.3911 H       
  26 H26           -1.2728    -1.6319     0.3272 H       
  27 H27           -3.4692    -1.8968    -1.2517 H       
  28 H28           -3.9376    -1.4056     0.3938 H       
  29 H29           -5.0023     0.6390    -0.5197 H       
  30 H30           -4.5339     0.1478    -2.1652 H       
  31 H31           -5.8742    -1.9249    -1.9280 H       
  32 H32           -6.3427    -1.4336    -0.2826 H       
  33 H33           -6.8842    -0.4796    -1.6843 H       
  34 H34            3.5915    -1.3223    -0.5137 H       
  35 H35            5.1347    -2.1902    -1.0175 H       
  36 H36            7.3077    -3.1906    -1.5875 H       
  37 H37            9.3125    -1.7759    -1.7589 H       
  38 H38            9.1582     0.6469    -1.3637 H       
@<TRIPOS>BOND
   1    1    2 ar
   2    1    6 ar
   3    1   23 1
   4    2    3 ar
   5    2    7 1
   6    3    4 ar
   7    3   24 1
   8    4    5 ar
   9    4   13 1
  10    5    6 ar
  11    6   25 1
  12    7    8 am
  13    7   26 1
  14    8    9 2
  15    8   10 1
  16   10   11 1
  17   10   27 1
  18   10   28 1
  19   11   12 1
  20   11   29 1
  21   11   30 1
  22   12   31 1
  23   12   32 1
  24   12   33 1
  25   13   14 am
  26   13   34 1
  27   14   15 1
  28   14   16 2
  29   15   17 ar
  30   15   21 ar
  31   17   18 ar
  32   17   35 1
  33   18   19 ar
  34   18   36 1
  35   19   20 ar
  36   19   37 1
  37   20   21 ar
  38   20   38 1
  39   21   22 1

#	End of record

