#	Name: ASD01208457
#	Creating user name:	WinNT
#	Creation time:	15. 06. 2019 19:09

#	Modifying user name:	WinNT
#	Modification time:	15. 06. 2019 19:09

#	Program:	/corina/corina34_cracker 3.40 0067  02.08.2006

@<TRIPOS>MOLECULE
ASD01208457
  64   66    0    0    0
SMALL
NO_CHARGES


@<TRIPOS>ATOM
   1 C1            -0.1530     1.9560    -1.8560 C.2     
   2 N2             1.1932    -0.0630    -1.8720 N.am    
   3 C3            -0.1233     0.4893    -2.2007 C.3     
   4 O4             0.8251     2.4857    -1.3841 O.2     
   5 O5            -1.2643     2.6753    -2.0783 O.3     
   6 C6             1.4523    -1.3664    -2.0966 C.2     
   7 O7             0.5926    -2.0846    -2.5725 O.2     
   8 N8             3.8275    -1.2229    -1.2274 N.pl3   
   9 C9             2.7696    -1.9191    -1.7676 C.2     
  10 C10            3.1672    -3.2292    -1.9447 C.2     
  11 C11            4.4860    -3.3284    -1.5051 C.2     
  12 C12            4.8754    -2.0812    -1.0666 C.2     
  13 C13            6.2025    -1.7328    -0.5167 C.ar    
  14 C14            7.1923    -2.7104    -0.4050 C.ar    
  15 C15            8.4342    -2.3799     0.1107 C.ar    
  16 C16            8.6954    -1.0788     0.5164 C.ar    
  17 C17            7.7142    -0.1039     0.4076 C.ar    
  18 C18            6.4710    -0.4247    -0.1131 C.ar    
  19 O19            7.9747     1.1686     0.8071 O.3     
  20 C20            7.4789     1.5753     2.0051 C.ar    
  21 C21            7.6918     2.8756     2.4401 C.ar    
  22 C22            7.1866     3.2865     3.6583 C.ar    
  23 C23            6.4694     2.4033     4.4441 C.ar    
  24 C24            6.2562     1.1069     4.0132 C.ar    
  25 C25            6.7539     0.6927     2.7929 C.ar    
  26 S26            5.8265     2.9306     5.9976 S.o2    
  27 O27            5.7302     1.7359     6.7608 O.2     
  28 O28            6.6912     3.9860     6.3947 O.2     
  29 C29            4.1749     3.5728     5.6094 C.3     
  30 O30            9.3985    -3.3313     0.2202 O.3     
  31 C31           10.6833    -2.9033     0.6767 C.3     
  32 C32           11.7514    -3.8820     0.1847 C.3     
  33 C33           10.6938    -2.8635     2.2062 C.3     
  34 O34           11.5416    -5.1597     0.7894 O.3     
  35 C35           12.4907    -6.1524     0.3947 C.3     
  36 C36           -1.2211     4.0823    -1.7220 C.3     
  37 H37            1.8783     0.5093    -1.4927 H       
  38 H38           -0.8899    -0.0339    -1.6291 H       
  39 H39           -0.3147     0.3625    -3.2663 H       
  40 H40            3.8287    -0.2793    -1.0027 H       
  41 H41            2.5666    -4.0302    -2.3495 H       
  42 H42            5.0932    -4.2215    -1.5073 H       
  43 H43            6.9898    -3.7234    -0.7202 H       
  44 H44            9.6651    -0.8244     0.9182 H       
  45 H45            5.7093     0.3358    -0.2019 H       
  46 H46            8.2522     3.5657     1.8269 H       
  47 H47            7.3524     4.2983     3.9975 H       
  48 H48            5.6962     0.4188     4.6291 H       
  49 H49            6.5830    -0.3186     2.4546 H       
  50 H50            3.5715     2.7801     5.1673 H       
  51 H51            3.6980     3.9253     6.5240 H       
  52 H52            4.2629     4.3990     4.9038 H       
  53 H53           10.8947    -1.9080     0.2859 H       
  54 H54           11.6849    -3.9777    -0.8991 H       
  55 H55           12.7388    -3.5091     0.4566 H       
  56 H56            9.9328    -2.1662     2.5567 H       
  57 H57           10.4823    -3.8588     2.5970 H       
  58 H58           11.6737    -2.5371     2.5544 H       
  59 H59           12.2630    -7.0927     0.8968 H       
  60 H60           12.4396    -6.2952    -0.6847 H       
  61 H61           13.4935    -5.8265     0.6710 H       
  62 H62           -1.0167     4.1810    -0.6559 H       
  63 H63           -0.4335     4.5770    -2.2903 H       
  64 H64           -2.1808     4.5450    -1.9523 H       
@<TRIPOS>BOND
   1    1    3 1
   2    1    4 2
   3    1    5 1
   4    2    3 1
   5    2    6 am
   6    2   37 1
   7    3   38 1
   8    3   39 1
   9    5   36 1
  10    6    7 2
  11    6    9 1
  12    8    9 1
  13    8   12 1
  14    8   40 1
  15    9   10 2
  16   10   11 1
  17   10   41 1
  18   11   12 2
  19   11   42 1
  20   12   13 1
  21   13   14 ar
  22   13   18 ar
  23   14   15 ar
  24   14   43 1
  25   15   16 ar
  26   15   30 1
  27   16   17 ar
  28   16   44 1
  29   17   18 ar
  30   17   19 1
  31   18   45 1
  32   19   20 1
  33   20   21 ar
  34   20   25 ar
  35   21   22 ar
  36   21   46 1
  37   22   23 ar
  38   22   47 1
  39   23   24 ar
  40   23   26 1
  41   24   25 ar
  42   24   48 1
  43   25   49 1
  44   26   27 2
  45   26   28 2
  46   26   29 1
  47   29   50 1
  48   29   51 1
  49   29   52 1
  50   30   31 1
  51   31   32 1
  52   31   33 1
  53   31   53 1
  54   32   34 1
  55   32   54 1
  56   32   55 1
  57   33   56 1
  58   33   57 1
  59   33   58 1
  60   34   35 1
  61   35   59 1
  62   35   60 1
  63   35   61 1
  64   36   62 1
  65   36   63 1
  66   36   64 1

#	End of record

