#	Name: ASD01915884
#	Creating user name:	WinNT
#	Creation time:	15. 06. 2019 20:06

#	Modifying user name:	WinNT
#	Modification time:	15. 06. 2019 20:06

#	Program:	/corina/corina34_cracker 3.40 0067  02.08.2006

@<TRIPOS>MOLECULE
ASD01915884
  40   43    0    0    0
SMALL
NO_CHARGES


@<TRIPOS>ATOM
   1 C1            -0.0167     1.3805     0.0096 C.2     
   2 C2             0.0021    -0.0041     0.0020 C.2     
   3 C3            -1.3084    -0.7731     0.0120 C.3     
   4 C4            -2.3561     0.0527     0.7554 C.3     
   5 N5            -2.3965     1.4416     0.3172 N.am    
   6 C6            -1.2725     2.1373     0.0202 C.2     
   7 O7            -1.3032     3.3304    -0.2185 O.2     
   8 S8             1.6336     1.9611    -0.0030 S.3     
   9 C9             2.2092     0.3500    -0.0182 C.2     
  10 N10            1.2125    -0.4922    -0.0132 N.2     
  11 C11            3.6349    -0.0338    -0.0356 C.ar    
  12 H12           -3.2566     1.8821     0.2323 H       
  13 C13            4.6360     0.9483    -0.0401 C.ar    
  14 C14            4.0056    -1.3788    -0.0418 C.ar    
  15 N15            5.2762    -1.7248    -0.0569 N.ar    
  16 C16            6.2456    -0.8211    -0.0670 C.ar    
  17 C17            5.9541     0.5410    -0.0565 C.ar    
  18 N18            7.5688    -1.2374    -0.0828 N.3     
  19 C19            7.6594    -2.7031    -0.0855 C.3     
  20 C20            8.3151    -0.6614     1.0431 C.3     
  21 C21            9.7966    -1.0222     0.9127 C.3     
  22 C22            9.9469    -2.5459     0.9027 C.3     
  23 C23            9.1213    -3.1248    -0.2496 C.3     
  24 H24           -1.6386    -0.9458    -1.0123 H       
  25 H25           -1.1682    -1.7277     0.5191 H       
  26 H26           -3.3365    -0.3955     0.5937 H       
  27 H27           -2.1320     0.0270     1.8218 H       
  28 H28            4.3814     1.9978    -0.0314 H       
  29 H29            3.2432    -2.1437    -0.0339 H       
  30 H30            6.7509     1.2700    -0.0649 H       
  31 H31            7.2725    -3.0926     0.8561 H       
  32 H32            7.0714    -3.1017    -0.9122 H       
  33 H33            8.2034     0.4229     1.0361 H       
  34 H34            7.9252    -1.0604     1.9794 H       
  35 H35           10.1907    -0.6116    -0.0170 H       
  36 H36           10.3478    -0.6077     1.7567 H       
  37 H37           10.9962    -2.8076     0.7664 H       
  38 H38            9.5887    -2.9535     1.8481 H       
  39 H39            9.1900    -4.2126    -0.2359 H       
  40 H40            9.5047    -2.7473    -1.1975 H       
@<TRIPOS>BOND
   1    1    2 2
   2    1    8 1
   3    1    6 1
   4    2    3 1
   5    2   10 1
   6    3    4 1
   7    3   24 1
   8    3   25 1
   9    4    5 1
  10    4   26 1
  11    4   27 1
  12    5    6 am
  13    5   12 1
  14    6    7 2
  15    8    9 1
  16    9   10 2
  17    9   11 1
  18   11   13 ar
  19   11   14 ar
  20   13   17 ar
  21   13   28 1
  22   14   15 ar
  23   14   29 1
  24   15   16 ar
  25   16   17 ar
  26   16   18 1
  27   17   30 1
  28   18   19 1
  29   18   20 1
  30   19   23 1
  31   19   31 1
  32   19   32 1
  33   20   21 1
  34   20   33 1
  35   20   34 1
  36   21   22 1
  37   21   35 1
  38   21   36 1
  39   22   23 1
  40   22   37 1
  41   22   38 1
  42   23   39 1
  43   23   40 1

#	End of record

