#	Name: ASD02508333
#	Creating user name:	WinNT
#	Creation time:	15. 06. 2019 20:24

#	Modifying user name:	WinNT
#	Modification time:	15. 06. 2019 20:24

#	Program:	/corina/corina34_cracker 3.40 0067  02.08.2006

@<TRIPOS>MOLECULE
ASD02508333
  50   51    0    0    0
SMALL
NO_CHARGES


@<TRIPOS>ATOM
   1 C1             0.0505     2.4073    -0.1046 C.ar    
   2 C2             0.0758     1.0190    -0.1439 C.ar    
   3 C3             1.2922     0.3487    -0.1190 C.ar    
   4 C4             2.4718     1.0640    -0.0552 C.ar    
   5 C5             2.4430     2.4460    -0.0157 C.ar    
   6 C6             1.2338     3.1165    -0.0409 C.ar    
   7 S7             3.9504     3.3547     0.0662 S.o2    
   8 O8             3.6282     4.6157     0.6364 O.2     
   9 O9             4.9192     2.4755     0.6209 O.2     
  10 C10            4.4582     3.6730    -1.5907 C.ar    
  11 C11            4.0380     4.8240    -2.2321 C.ar    
  12 C12            4.4342     5.0761    -3.5317 C.ar    
  13 C13            5.2563     4.1715    -4.1935 C.ar    
  14 C14            5.6762     3.0177    -3.5460 C.ar    
  15 C15            5.2805     2.7744    -2.2448 C.ar    
  16 N16           -1.1192     0.2987    -0.2080 N.am    
  17 C17           -1.3786    -0.5904    -1.3431 C.3     
  18 S18           -2.2426     0.4496     0.9993 S.o2    
  19 C19           -3.2269     1.8971     0.5232 C.3     
  20 O20           -3.0207    -0.7357     0.9041 O.2     
  21 O21           -1.4734     0.7297     2.1608 O.2     
  22 Cl22           3.9056     6.5204    -4.3369 Cl      
  23 N23            5.6594     4.4232    -5.5101 N.am    
  24 C24            6.8830     4.0398    -5.9252 C.2     
  25 O25            7.6061     3.4109    -5.1818 O.2     
  26 C26            7.3527     4.3927    -7.3130 C.3     
  27 C27            6.8482     3.3424    -8.3046 C.3     
  28 O28            6.8409     5.6762    -7.6771 O.3     
  29 C29            8.8821     4.4269    -7.3405 C.3     
  30 F30            9.3831     3.1703    -6.9839 F       
  31 F31            9.3181     4.7544    -8.6288 F       
  32 F32            9.3434     5.3873    -6.4338 F       
  33 H33           -0.8934     2.9317    -0.1283 H       
  34 H34            1.3154    -0.7307    -0.1491 H       
  35 H35            3.4179     0.5435    -0.0358 H       
  36 H36            1.2148     4.1958    -0.0099 H       
  37 H37            3.3993     5.5261    -1.7169 H       
  38 H38            6.3146     2.3127    -4.0576 H       
  39 H39            5.6073     1.8769    -1.7407 H       
  40 H40           -1.0018    -1.5878    -1.1169 H       
  41 H41           -2.4517    -0.6405    -1.5274 H       
  42 H42           -0.8754    -0.2042    -2.2295 H       
  43 H43           -3.6925     1.7172    -0.4457 H       
  44 H44           -4.0003     2.0724     1.2710 H       
  45 H45           -2.5793     2.7715     0.4584 H       
  46 H46            5.0581     4.8736    -6.1238 H       
  47 H47            5.7587     3.3180    -8.2850 H       
  48 H48            7.1880     3.5976    -9.3084 H       
  49 H49            7.2386     2.3633    -8.0268 H       
  50 H50            7.1209     6.3922    -7.0905 H       
@<TRIPOS>BOND
   1    1    2 ar
   2    1    6 ar
   3    1   33 1
   4    2    3 ar
   5    2   16 1
   6    3    4 ar
   7    3   34 1
   8    4    5 ar
   9    4   35 1
  10    5    6 ar
  11    5    7 1
  12    6   36 1
  13    7    8 2
  14    7    9 2
  15    7   10 1
  16   10   11 ar
  17   10   15 ar
  18   11   12 ar
  19   11   37 1
  20   12   13 ar
  21   12   22 1
  22   13   14 ar
  23   13   23 1
  24   14   15 ar
  25   14   38 1
  26   15   39 1
  27   16   17 1
  28   16   18 am
  29   17   40 1
  30   17   41 1
  31   17   42 1
  32   18   19 1
  33   18   20 2
  34   18   21 2
  35   19   43 1
  36   19   44 1
  37   19   45 1
  38   23   24 am
  39   23   46 1
  40   24   25 2
  41   24   26 1
  42   26   27 1
  43   26   28 1
  44   26   29 1
  45   27   47 1
  46   27   48 1
  47   27   49 1
  48   28   50 1
  49   29   30 1
  50   29   31 1
  51   29   32 1

#	End of record

