#	Name: ASD03430016
#	Creating user name:	WinNT
#	Creation time:	15. 06. 2019 20:40

#	Modifying user name:	WinNT
#	Modification time:	15. 06. 2019 20:40

#	Program:	/corina/corina34_cracker 3.40 0067  02.08.2006

@<TRIPOS>MOLECULE
ASD03430016
  51   56    0    0    0
SMALL
NO_CHARGES


@<TRIPOS>ATOM
   1 C1            -0.0167     1.3822     0.0096 C.ar    
   2 C2             0.0021    -0.0041     0.0020 C.ar    
   3 C3             1.2027    -0.6819    -0.0149 C.ar    
   4 C4             2.4085     0.0128    -0.0146 C.ar    
   5 C5             2.3861     1.4039    -0.0116 C.ar    
   6 C6             1.1815     2.0867     0.0020 C.ar    
   7 O7             3.4713    -0.8419    -0.0037 O.3     
   8 C8             1.5511    -2.1459    -0.0481 C.3     
   9 C9             3.0369    -2.1462    -0.4336 C.3     
  10 C10            0.4284    -3.8612     1.0089 C.ar    
  11 C11            1.3146    -2.8195     1.2709 C.ar    
  12 C12            0.7184    -2.9075    -1.0390 C.2     
  13 N13            0.1000    -3.8862    -0.3487 N.am    
  14 O14            0.6211    -2.6852    -2.2274 O.2     
  15 C15            1.7779    -2.5986     2.5487 C.ar    
  16 C16            1.3649    -3.4148     3.5866 C.ar    
  17 C17            0.4858    -4.4531     3.3376 C.ar    
  18 C18            0.0183    -4.6783     2.0596 C.ar    
  19 C19           -0.8100    -4.8630    -0.9520 C.3     
  20 O20           -1.2113     2.0356     0.0189 O.3     
  21 C21           -1.1865     3.4162     0.3977 C.3     
  22 C22           -0.0350     4.0992    -0.3526 C.3     
  23 O23            1.1866     3.4483     0.0117 O.3     
  24 C24           -2.2190    -4.3301    -0.9095 C.2     
  25 C25           -2.7287    -3.6771    -1.9799 C.2     
  26 N26           -3.9962    -3.1913    -1.9565 N.am    
  27 C27           -4.7739    -3.3489    -0.8685 C.2     
  28 C28           -4.2764    -4.0223     0.2601 C.2     
  29 C29           -3.0048    -4.5153     0.2367 C.2     
  30 O30           -5.9114    -2.9062    -0.8625 O.2     
  31 C31           -4.5237    -2.4874    -3.1280 C.3     
  32 H32           -0.9269    -0.5549     0.0097 H       
  33 H33            3.3148     1.9551    -0.0194 H       
  34 H34            3.1572    -2.2586    -1.5111 H       
  35 H35            3.5752    -2.9291     0.1008 H       
  36 H36            2.4647    -1.7875     2.7408 H       
  37 H37            1.7283    -3.2419     4.5887 H       
  38 H38            0.1642    -5.0908     4.1476 H       
  39 H39           -0.6680    -5.4910     1.8731 H       
  40 H40           -0.5192    -5.0391    -1.9876 H       
  41 H41           -0.7587    -5.7991    -0.3960 H       
  42 H42           -2.1315     3.8882     0.1290 H       
  43 H43           -1.0257     3.4997     1.4725 H       
  44 H44           -0.1921     4.0092    -1.4275 H       
  45 H45            0.0119     5.1520    -0.0742 H       
  46 H46           -2.1204    -3.5407    -2.8618 H       
  47 H47           -4.8955    -4.1513     1.1356 H       
  48 H48           -2.6050    -5.0357     1.0945 H       
  49 H49           -5.0026    -3.2028    -3.7966 H       
  50 H50           -5.2542    -1.7447    -2.8072 H       
  51 H51           -3.7069    -1.9910    -3.6519 H       
@<TRIPOS>BOND
   1    1    2 ar
   2    1    6 ar
   3    1   20 1
   4    2    3 ar
   5    2   32 1
   6    3    4 ar
   7    3    8 1
   8    4    5 ar
   9    4    7 1
  10    5    6 ar
  11    5   33 1
  12    6   23 1
  13    7    9 1
  14    8    9 1
  15    8   11 1
  16    8   12 1
  17    9   34 1
  18    9   35 1
  19   10   11 ar
  20   10   13 1
  21   10   18 ar
  22   11   15 ar
  23   12   13 am
  24   12   14 2
  25   13   19 1
  26   15   16 ar
  27   15   36 1
  28   16   17 ar
  29   16   37 1
  30   17   18 ar
  31   17   38 1
  32   18   39 1
  33   19   24 1
  34   19   40 1
  35   19   41 1
  36   20   21 1
  37   21   22 1
  38   21   42 1
  39   21   43 1
  40   22   23 1
  41   22   44 1
  42   22   45 1
  43   24   25 2
  44   24   29 1
  45   25   26 1
  46   25   46 1
  47   26   27 am
  48   26   31 1
  49   27   28 1
  50   27   30 2
  51   28   29 2
  52   28   47 1
  53   29   48 1
  54   31   49 1
  55   31   50 1
  56   31   51 1

#	End of record

