#	Name: ASD01911963
#	Creating user name:	WinNT
#	Creation time:	15. 06. 2019 19:58

#	Modifying user name:	WinNT
#	Modification time:	15. 06. 2019 19:58

#	Program:	/corina/corina34_cracker 3.40 0067  02.08.2006

@<TRIPOS>MOLECULE
ASD01911963
  39   41    0    0    0
SMALL
NO_CHARGES


@<TRIPOS>ATOM
   1 C1             0.7325     1.1460    -0.1722 C.ar    
   2 C2             0.5293    -0.2320    -0.1612 C.ar    
   3 C3             1.6399    -1.0632    -0.2876 C.ar    
   4 N4             2.8383    -0.5178    -0.4125 N.ar    
   5 C5             2.9887     0.7916    -0.4184 C.ar    
   6 N6             1.9636     1.6117    -0.3013 N.ar    
   7 N7            -0.7549    -0.7665    -0.0265 N.pl3   
   8 C8            -0.9379    -2.1530    -0.0178 C.ar    
   9 C9            -1.3396    -4.2063    -1.2014 C.ar    
  10 C10           -1.3014    -4.9032    -0.0059 C.ar    
  11 C11           -1.0870    -4.2263     1.1874 C.ar    
  12 C12           -0.9052    -2.8503     1.1814 C.ar    
  13 N13           -1.0491    -4.9320     2.3952 N.am    
  14 C14           -0.5148    -6.1686     2.4367 C.2     
  15 C15           -0.3803    -6.8727     3.7295 C.ar    
  16 O16           -0.1435    -6.7050     1.4109 O.2     
  17 C17            0.1725    -8.1533     3.7757 C.ar    
  18 C18           -1.1586    -2.8335    -1.2106 C.ar    
  19 F19           -1.5484    -4.8671    -2.3612 F       
  20 F20           -1.1967    -2.1551    -2.3782 F       
  21 C21           -1.9095     0.1256     0.1056 C.3     
  22 C22            0.2963    -8.8060     4.9851 C.ar    
  23 C23           -0.1261    -8.1944     6.1514 C.ar    
  24 C24           -0.6762    -6.9229     6.1139 C.ar    
  25 C25           -0.8004    -6.2570     4.9097 C.ar    
  26 F26           -1.0870    -6.3317     7.2571 F       
  27 H27           -0.1032     1.8240    -0.0811 H       
  28 H28            1.5242    -2.1369    -0.2833 H       
  29 H29            3.9812     1.2047    -0.5221 H       
  30 H30           -1.4432    -5.9739    -0.0008 H       
  31 H31           -0.7380    -2.3230     2.1090 H       
  32 H32           -1.4073    -4.5311     3.2026 H       
  33 H33            0.5027    -8.6330     2.8661 H       
  34 H34           -2.3064     0.3550    -0.8833 H       
  35 H35           -2.6799    -0.3632     0.7019 H       
  36 H36           -1.6011     1.0486     0.5965 H       
  37 H37            0.7237    -9.7971     5.0210 H       
  38 H38           -0.0272    -8.7100     7.0953 H       
  39 H39           -1.2291    -5.2662     4.8806 H       
@<TRIPOS>BOND
   1    1    2 ar
   2    1    6 ar
   3    1   27 1
   4    2    3 ar
   5    2    7 1
   6    3    4 ar
   7    3   28 1
   8    4    5 ar
   9    5    6 ar
  10    5   29 1
  11    7    8 1
  12    7   21 1
  13    8   18 ar
  14    8   12 ar
  15    9   10 ar
  16    9   18 ar
  17    9   19 1
  18   10   11 ar
  19   10   30 1
  20   11   12 ar
  21   11   13 1
  22   12   31 1
  23   13   14 am
  24   13   32 1
  25   14   15 1
  26   14   16 2
  27   15   17 ar
  28   15   25 ar
  29   17   22 ar
  30   17   33 1
  31   18   20 1
  32   21   34 1
  33   21   35 1
  34   21   36 1
  35   22   23 ar
  36   22   37 1
  37   23   24 ar
  38   23   38 1
  39   24   25 ar
  40   24   26 1
  41   25   39 1

#	End of record

