#	Name: ASD01870030
#	Creating user name:	WinNT
#	Creation time:	15. 06. 2019 19:38

#	Modifying user name:	WinNT
#	Modification time:	15. 06. 2019 19:38

#	Program:	/corina/corina34_cracker 3.40 0067  02.08.2006

@<TRIPOS>MOLECULE
ASD01870030
  38   41    0    0    0
SMALL
NO_CHARGES


@<TRIPOS>ATOM
   1 C1            -0.0167     1.3774     0.0096 C.ar    
   2 C2             0.0021    -0.0041     0.0020 C.ar    
   3 N3             1.1354    -0.6695    -0.0119 N.ar    
   4 C4             2.3261    -0.0578    -0.0200 C.ar    
   5 C5             2.3957     1.3311    -0.0137 C.ar    
   6 C6             1.1852     2.0719     0.0019 C.ar    
   7 S7             3.9418    -0.7500    -0.0380 S.3     
   8 C8             4.7122     0.8264    -0.0371 C.2     
   9 C9             3.7719     1.8348    -0.0236 C.2     
  10 C10            6.0887     1.1764    -0.0482 C.2     
  11 N11            6.4262     2.4813    -0.0452 N.am    
  12 C12            5.4570     3.4336    -0.0317 C.2     
  13 N13            4.1959     3.1281    -0.0210 N.2     
  14 N14            1.2027     3.4594     0.0083 N.3     
  15 C15            7.7768     2.8559    -0.0555 C.ar    
  16 O16            6.9494     0.3120    -0.0599 O.2     
  17 C17            0.5119     4.0001    -1.1701 C.3     
  18 C18            0.6195     3.9876     1.2488 C.3     
  19 C19            8.4606     3.0370     1.1447 C.ar    
  20 C20            9.7959     3.4075     1.1282 C.ar    
  21 C21           10.4460     3.5968    -0.0768 C.ar    
  22 C22            9.7677     3.4172    -1.2686 C.ar    
  23 C23            8.4380     3.0419    -1.2610 C.ar    
  24 O24            7.8196     2.8512     2.3289 O.3     
  25 H25           -0.9557     1.9109     0.0170 H       
  26 H26           -0.9315    -0.5470     0.0080 H       
  27 H27            5.7445     4.4746    -0.0294 H       
  28 H28           -0.5248     3.6637    -1.1696 H       
  29 H29            0.5405     5.0893    -1.1400 H       
  30 H30            1.0076     3.6485    -2.0749 H       
  31 H31            1.1933     3.6268     2.1024 H       
  32 H32            0.6458     5.0770     1.2276 H       
  33 H33           -0.4134     3.6507     1.3369 H       
  34 H34           10.3286     3.5486     2.0570 H       
  35 H35           11.4865     3.8862    -0.0877 H       
  36 H36           10.2798     3.5667    -2.2076 H       
  37 H37            7.9109     2.9023    -2.1933 H       
  38 H38            7.8699     1.9461     2.6657 H       
@<TRIPOS>BOND
   1    1    2 ar
   2    1    6 ar
   3    1   25 1
   4    2    3 ar
   5    2   26 1
   6    3    4 ar
   7    4    5 ar
   8    4    7 1
   9    5    6 ar
  10    5    9 1
  11    6   14 1
  12    7    8 1
  13    8    9 2
  14    8   10 1
  15    9   13 1
  16   10   11 am
  17   10   16 2
  18   11   12 1
  19   11   15 1
  20   12   13 2
  21   12   27 1
  22   14   17 1
  23   14   18 1
  24   15   19 ar
  25   15   23 ar
  26   17   28 1
  27   17   29 1
  28   17   30 1
  29   18   31 1
  30   18   32 1
  31   18   33 1
  32   19   20 ar
  33   19   24 1
  34   20   21 ar
  35   20   34 1
  36   21   22 ar
  37   21   35 1
  38   22   23 ar
  39   22   36 1
  40   23   37 1
  41   24   38 1

#	End of record

