#	Name: ASD09116112
#	Creating user name:	WinNT
#	Creation time:	15. 06. 2019 21:20

#	Modifying user name:	WinNT
#	Modification time:	15. 06. 2019 21:20

#	Program:	/corina/corina34_cracker 3.40 0067  02.08.2006

@<TRIPOS>MOLECULE
ASD09116112
  39   41    0    0    0
SMALL
NO_CHARGES


@<TRIPOS>ATOM
   1 N1            -0.0179     1.4702     0.0101 N.3     
   2 C2             0.0021    -0.0041     0.0020 C.3     
   3 C3             1.4820    -0.4413     0.0110 C.3     
   4 C4             2.2089     0.7978     0.5967 C.3     
   5 C5             1.3770     1.9600    -0.0006 C.3     
   6 C6            -0.6495     3.2393    -4.0897 C.ar    
   7 C7            -1.0603     4.3088    -3.3357 C.ar    
   8 C8            -1.8226     4.0822    -2.0465 C.3     
   9 C9            -0.8591     3.5004    -1.0093 C.3     
  10 C10           -0.7682     1.9929    -1.1396 C.3     
  11 C11           -0.0961     1.5129    -2.4108 C.3     
  12 C12           -0.9566     1.8268    -3.6367 C.3     
  13 C13           -0.7842     5.6000    -3.7444 C.ar    
  14 C14           -0.0858     5.8103    -4.9277 C.ar    
  15 C15            0.3290     4.7252    -5.6889 C.ar    
  16 C16            0.0427     3.4392    -5.2717 C.ar    
  17 N17            0.1979     7.1109    -5.3508 N.pl3   
  18 H18           -0.5030    -0.3866     0.8889 H       
  19 H19           -0.4892    -0.3766    -0.8968 H       
  20 H20            1.6232    -1.3104     0.6535 H       
  21 H21            1.8287    -0.6487    -1.0014 H       
  22 H22            2.1590     0.8012     1.6856 H       
  23 H23            3.2429     0.8417     0.2547 H       
  24 H24            1.6974     2.1707    -1.0209 H       
  25 H25            1.4709     2.8516     0.6194 H       
  26 H26           -2.2211     5.0302    -1.6851 H       
  27 H27           -2.6388     3.3814    -2.2219 H       
  28 H28            0.1304     3.9330    -1.1574 H       
  29 H29           -1.2135     3.7528    -0.0099 H       
  30 H30           -1.7772     1.5817    -1.1083 H       
  31 H31            0.8693     2.0083    -2.5145 H       
  32 H32            0.0598     0.4359    -2.3488 H       
  33 H33           -2.0114     1.7477    -3.3736 H       
  34 H34           -0.7223     1.1260    -4.4380 H       
  35 H35           -1.1092     6.4400    -3.1484 H       
  36 H36            0.8715     4.8864    -6.6087 H       
  37 H37            0.3643     2.5935    -5.8614 H       
  38 H38           -0.0924     7.8682    -4.8188 H       
  39 H39            0.6853     7.2567    -6.1767 H       
@<TRIPOS>BOND
   1    1    2 1
   2    1    5 1
   3    1   10 1
   4    2    3 1
   5    2   18 1
   6    2   19 1
   7    3    4 1
   8    3   20 1
   9    3   21 1
  10    4    5 1
  11    4   22 1
  12    4   23 1
  13    5   24 1
  14    5   25 1
  15    6    7 ar
  16    6   12 1
  17    6   16 ar
  18    7    8 1
  19    7   13 ar
  20    8    9 1
  21    8   26 1
  22    8   27 1
  23    9   10 1
  24    9   28 1
  25    9   29 1
  26   10   11 1
  27   10   30 1
  28   11   12 1
  29   11   31 1
  30   11   32 1
  31   12   33 1
  32   12   34 1
  33   13   14 ar
  34   13   35 1
  35   14   15 ar
  36   14   17 1
  37   15   16 ar
  38   15   36 1
  39   16   37 1
  40   17   38 1
  41   17   39 1

#	End of record

