#	Name: ASD02030106
#	Creating user name:	WinNT
#	Creation time:	15. 06. 2019 20:14

#	Modifying user name:	WinNT
#	Modification time:	15. 06. 2019 20:14

#	Program:	/corina/corina34_cracker 3.40 0067  02.08.2006

@<TRIPOS>MOLECULE
ASD02030106
  17   16    0    0    0
SMALL
NO_CHARGES


@<TRIPOS>ATOM
   1 C1            -0.0184     1.5028     0.0103 C.2     
   2 C2             0.0021    -0.0041     0.0020 C.3     
   3 C3             1.4513    -0.4944    -0.0145 C.3     
   4 C4             1.4750    -2.0197     0.1029 C.3     
   5 O5             1.0197     2.1211     0.0037 O.2     
   6 O6            -1.1898     2.1580     0.0194 O.3     
   7 O7             2.0733    -0.1011    -1.2394 O.3     
   8 N8             2.8657    -2.4812     0.2075 N.3     
   9 H9            -0.4983    -0.3791     0.8948 H       
  10 H10           -0.5153    -0.3696    -0.8850 H       
  11 H11            1.9924    -0.0570     0.8246 H       
  12 H12            0.9232    -2.3243     0.9921 H       
  13 H13            1.0118    -2.4593    -0.7805 H       
  14 H14           -1.1523     3.1243     0.0245 H       
  15 H15            1.6434    -0.4548    -2.0301 H       
  16 H16            2.9082    -3.4862     0.2862 H       
  17 H17            3.4144    -2.1562    -0.5744 H       
@<TRIPOS>BOND
   1    1    2 1
   2    1    5 2
   3    1    6 1
   4    2    3 1
   5    2    9 1
   6    2   10 1
   7    3    4 1
   8    3    7 1
   9    3   11 1
  10    4    8 1
  11    4   12 1
  12    4   13 1
  13    6   14 1
  14    7   15 1
  15    8   16 1
  16    8   17 1

#	End of record

