#	Name: ASD01410568
#	Creating user name:	WinNT
#	Creation time:	15. 06. 2019 19:18

#	Modifying user name:	WinNT
#	Modification time:	15. 06. 2019 19:18

#	Program:	/corina/corina34_cracker 3.40 0067  02.08.2006

@<TRIPOS>MOLECULE
ASD01410568
  73   76    0    0    0
SMALL
NO_CHARGES


@<TRIPOS>ATOM
   1 C1            -0.1233     2.2720     0.4504 C.ar    
   2 C2             0.4542     2.5102    -0.7891 C.ar    
   3 C3             1.7086     1.9999    -1.0593 C.ar    
   4 N4             2.3596     1.2919    -0.1563 N.ar    
   5 C5             1.8425     1.0437     1.0359 C.ar    
   6 C6             0.5853     1.5262     1.3764 C.ar    
   7 O7             2.5469     0.3110     1.9345 O.3     
   8 C8             3.7285    -0.2292     1.5318 C.ar    
   9 C9             3.7729    -1.5434     1.0881 C.ar    
  10 C10            4.9674    -2.1027     0.6771 C.ar    
  11 C11            6.1343    -1.3539     0.7046 C.ar    
  12 C12            6.0990    -0.0232     1.1515 C.ar    
  13 C13            4.8838     0.5365     1.5604 C.ar    
  14 N14            7.3388    -1.9207     0.2903 N.am    
  15 C15            7.6092    -2.0426    -1.0245 C.2     
  16 C16            8.3106    -2.3838     1.2840 C.3     
  17 O17            8.6412    -2.5677    -1.3852 O.2     
  18 C18            6.6292    -1.5264    -2.0463 C.3     
  19 C19           -0.2802     3.3167    -1.8290 C.3     
  20 C20            6.6435    -2.4398    -3.2736 C.3     
  21 C21            5.6485    -1.9158    -4.3110 C.3     
  22 C22            6.0443    -0.4974    -4.7263 C.3     
  23 C23            6.0300     0.4160    -3.4990 C.3     
  24 C24            7.0250    -0.1080    -2.4615 C.3     
  25 C25            5.0493     0.0266    -5.7637 C.3     
  26 C26            9.6507    -1.6829     1.0520 C.3     
  27 O27            7.2825    -4.5592     1.5096 O.3     
  28 C28            8.4962    -3.8965     1.1494 C.3     
  29 F29            4.8382     1.8158     1.9922 F       
  30 N30            0.0573     4.7340    -1.6758 N.pl3   
  31 N31            1.0378     5.3196    -2.2669 N.2     
  32 C32            1.0526     6.5833    -1.9077 C.2     
  33 C33           -0.0194     6.7432    -1.0267 C.2     
  34 N34           -0.5900     5.5633    -0.9361 N.2     
  35 C35            7.3488    -5.9838     1.4179 C.3     
  36 C36            0.0002     1.2409     2.7356 C.3     
  37 F37           -1.2646     1.8308     2.8320 F       
  38 F38           -0.1154    -0.1420     2.9127 F       
  39 F39            0.8377     1.7692     3.7239 F       
  40 C40            7.3327     0.7800     1.1844 C.2     
  41 O41            7.6425     1.4574     0.2241 O.2     
  42 O42            8.1182     0.7640     2.2793 O.3     
  43 H43           -1.1012     2.6636     0.6884 H       
  44 H44            2.1623     2.1823    -2.0223 H       
  45 H45            2.8682    -2.1327     1.0643 H       
  46 H46            4.9926    -3.1264     0.3337 H       
  47 H47            7.9467    -2.1500     2.2845 H       
  48 H48            5.6281    -1.5128    -1.6152 H       
  49 H49            0.0118     2.9791    -2.8234 H       
  50 H50           -1.3543     3.1830    -1.7007 H       
  51 H51            7.6446    -2.4535    -3.7047 H       
  52 H52            6.3616    -3.4503    -2.9778 H       
  53 H53            5.6588    -2.5666    -5.1854 H       
  54 H54            4.6475    -1.9022    -3.8799 H       
  55 H55            7.0453    -0.5110    -5.1574 H       
  56 H56            6.3119     1.4265    -3.7948 H       
  57 H57            5.0289     0.4296    -3.0679 H       
  58 H58            7.0147     0.5427    -1.5872 H       
  59 H59            8.0260    -0.1216    -2.8926 H       
  60 H60            4.0483     0.0402    -5.3326 H       
  61 H61            5.3313     1.0371    -6.0595 H       
  62 H62            5.0595    -0.6241    -6.6381 H       
  63 H63            9.5176    -0.6050     1.1436 H       
  64 H64           10.3725    -2.0243     1.7939 H       
  65 H65           10.0167    -1.9202     0.0530 H       
  66 H66            8.7514    -4.1409     0.1183 H       
  67 H67            9.2990    -4.2243     1.8099 H       
  68 H68            1.7507     7.3426    -2.2278 H       
  69 H69           -0.3202     7.6517    -0.5261 H       
  70 H70            8.1278    -6.3548     2.0840 H       
  71 H71            6.3890    -6.4115     1.7075 H       
  72 H72            7.5802    -6.2715     0.3924 H       
  73 H73            8.9177     1.3074     2.2541 H       
@<TRIPOS>BOND
   1    1    2 ar
   2    1    6 ar
   3    1   43 1
   4    2    3 ar
   5    2   19 1
   6    3    4 ar
   7    3   44 1
   8    4    5 ar
   9    5    6 ar
  10    5    7 1
  11    6   36 1
  12    7    8 1
  13    8    9 ar
  14    8   13 ar
  15    9   10 ar
  16    9   45 1
  17   10   11 ar
  18   10   46 1
  19   11   12 ar
  20   11   14 1
  21   12   13 ar
  22   12   40 1
  23   13   29 1
  24   14   15 am
  25   14   16 1
  26   15   17 2
  27   15   18 1
  28   16   26 1
  29   16   28 1
  30   16   47 1
  31   18   20 1
  32   18   24 1
  33   18   48 1
  34   19   30 1
  35   19   49 1
  36   19   50 1
  37   20   21 1
  38   20   51 1
  39   20   52 1
  40   21   22 1
  41   21   53 1
  42   21   54 1
  43   22   23 1
  44   22   25 1
  45   22   55 1
  46   23   24 1
  47   23   56 1
  48   23   57 1
  49   24   58 1
  50   24   59 1
  51   25   60 1
  52   25   61 1
  53   25   62 1
  54   26   63 1
  55   26   64 1
  56   26   65 1
  57   27   28 1
  58   27   35 1
  59   28   66 1
  60   28   67 1
  61   30   31 1
  62   30   34 1
  63   31   32 2
  64   32   33 1
  65   32   68 1
  66   33   34 2
  67   33   69 1
  68   35   70 1
  69   35   71 1
  70   35   72 1
  71   36   37 1
  72   36   38 1
  73   36   39 1
  74   40   41 2
  75   40   42 1
  76   42   73 1

#	End of record

