#	Name: ASD01140624
#	Creating user name:	WinNT
#	Creation time:	15. 06. 2019 19:01

#	Modifying user name:	WinNT
#	Modification time:	15. 06. 2019 19:01

#	Program:	/corina/corina34_cracker 3.40 0067  02.08.2006

@<TRIPOS>MOLECULE
ASD01140624
  51   53    0    0    0
SMALL
NO_CHARGES


@<TRIPOS>ATOM
   1 N1            -0.0208     1.1859    -0.0554 N.2     
   2 N2             0.1692    -0.0154    -0.3043 N.2     
   3 C3             1.4019    -0.5910    -0.2582 C.2     
   4 C4             2.4016    -0.0224     0.5222 C.2     
   5 C5             2.0345     1.2487     1.2434 C.3     
   6 C6             3.2241     2.1083     1.5579 C.2     
   7 C7             3.0138     3.4136     1.7805 C.2     
   8 C8             1.6493     3.9546     1.7245 C.2     
   9 C9             0.7006     3.3064     1.0048 C.2     
  10 C10            1.1002     2.0364     0.3131 C.3     
  11 C11            1.6746    -1.8095    -1.0304 C.2     
  12 O12            2.8029    -2.2634    -1.0725 O.2     
  13 N13            0.6753    -2.4254    -1.6926 N.am    
  14 C14            0.9474    -3.6413    -2.4632 C.3     
  15 C15           -0.3476    -4.1345    -3.1118 C.3     
  16 C16           -0.0634    -5.4043    -3.9165 C.3     
  17 C17           -0.6716     3.8299     0.9053 C.ar    
  18 C18           -1.1038     4.4481    -0.2712 C.ar    
  19 C19           -2.3948     4.9371    -0.3573 C.ar    
  20 C20           -3.2608     4.8155     0.7218 C.ar    
  21 C21           -2.8410     4.2054     1.8887 C.ar    
  22 C22           -1.5534     3.7057     1.9883 C.ar    
  23 N23            3.6352    -0.5793     0.6288 N.pl3   
  24 O24           -1.1439     3.1014     3.1344 O.3     
  25 C25           -2.0962     3.0106     4.1960 C.3     
  26 O26           -2.8171     5.5390    -1.5012 O.3     
  27 C27           -4.1621     6.0212    -1.5222 C.3     
  28 H28            1.5084     1.0042     2.1662 H       
  29 H29            4.2181     1.6885     1.6039 H       
  30 H30            3.8459     4.0659     2.0008 H       
  31 H31            1.4031     4.8633     2.2538 H       
  32 H32            1.6495     2.3027    -0.5899 H       
  33 H33           -0.2241    -2.0636    -1.6590 H       
  34 H34            1.6819    -3.4233    -3.2384 H       
  35 H35            1.3378    -4.4125    -1.7992 H       
  36 H36           -1.0822    -4.3524    -2.3365 H       
  37 H37           -0.7380    -3.3633    -3.7758 H       
  38 H38            0.3270    -6.1755    -3.2525 H       
  39 H39           -0.9860    -5.7557    -4.3786 H       
  40 H40            0.6711    -5.1864    -4.6918 H       
  41 H41           -0.4314     4.5442    -1.1109 H       
  42 H42           -4.2674     5.1999     0.6487 H       
  43 H43           -3.5201     4.1145     2.7235 H       
  44 H44            3.7663    -1.5140     0.4049 H       
  45 H45            4.3853    -0.0425     0.9288 H       
  46 H46           -1.6418     2.5080     5.0498 H       
  47 H47           -2.4103     4.0124     4.4891 H       
  48 H48           -2.9630     2.4422     3.8588 H       
  49 H49           -4.8485     5.1906    -1.3576 H       
  50 H50           -4.2943     6.7633    -0.7348 H       
  51 H51           -4.3694     6.4776    -2.4901 H       
@<TRIPOS>BOND
   1    1    2 2
   2    1   10 1
   3    2    3 1
   4    3    4 2
   5    3   11 1
   6    4    5 1
   7    4   23 1
   8    5    6 1
   9    5   10 1
  10    5   28 1
  11    6    7 2
  12    6   29 1
  13    7    8 1
  14    7   30 1
  15    8    9 2
  16    8   31 1
  17    9   10 1
  18    9   17 1
  19   10   32 1
  20   11   12 2
  21   11   13 am
  22   13   14 1
  23   13   33 1
  24   14   15 1
  25   14   34 1
  26   14   35 1
  27   15   16 1
  28   15   36 1
  29   15   37 1
  30   16   38 1
  31   16   39 1
  32   16   40 1
  33   17   18 ar
  34   17   22 ar
  35   18   19 ar
  36   18   41 1
  37   19   20 ar
  38   19   26 1
  39   20   21 ar
  40   20   42 1
  41   21   22 ar
  42   21   43 1
  43   22   24 1
  44   23   44 1
  45   23   45 1
  46   24   25 1
  47   25   46 1
  48   25   47 1
  49   25   48 1
  50   26   27 1
  51   27   49 1
  52   27   50 1
  53   27   51 1

#	End of record

