#	Name: ASD02560021
#	Creating user name:	WinNT
#	Creation time:	15. 06. 2019 20:24

#	Modifying user name:	WinNT
#	Modification time:	15. 06. 2019 20:24

#	Program:	/corina/corina34_cracker 3.40 0067  02.08.2006

@<TRIPOS>MOLECULE
ASD02560021
  60   63    0    0    0
SMALL
NO_CHARGES


@<TRIPOS>ATOM
   1 C1             1.2021     2.3142    -0.9147 C.ar    
   2 C2             1.2585     0.9797    -0.5368 C.ar    
   3 C3             2.0863     0.1084    -1.2501 C.ar    
   4 N4             2.8048     0.5486    -2.2692 N.ar    
   5 C5             2.7690     1.8132    -2.6486 C.ar    
   6 C6             1.9747     2.7300    -1.9913 C.ar    
   7 N7             0.4980     0.5138     0.5425 N.pl3   
   8 C8            -0.2939     1.4532     1.3403 C.3     
   9 C9            -1.4570     0.7087     1.9989 C.3     
  10 C10            0.5910     2.0759     2.4220 C.3     
  11 N11            2.1555    -1.2337    -0.8845 N.3     
  12 C12            3.4803    -1.7934    -1.1839 C.3     
  13 C13            3.5756    -3.2092    -0.6056 C.3     
  14 N14            2.4397    -3.9967    -1.1083 N.am    
  15 C15            1.0874    -3.4359    -0.9671 C.3     
  16 C16            1.0900    -2.0111    -1.5313 C.3     
  17 C17            2.6328    -5.2006    -1.6826 C.2     
  18 C18            3.9945    -5.7372    -1.8254 C.2     
  19 O19            1.6807    -5.8433    -2.0829 O.2     
  20 C20            4.3924    -6.6366    -2.7630 C.2     
  21 C21            5.7703    -6.8913    -2.5597 C.ar    
  22 C22            6.1762    -6.1068    -1.4632 C.ar    
  23 N23            5.0741    -5.4027    -1.0317 N.pl3   
  24 C24            6.7009    -7.7142    -3.2083 C.ar    
  25 C25            8.0077    -7.7480    -2.7657 C.ar    
  26 C26            8.4035    -6.9682    -1.6784 C.ar    
  27 C27            7.4995    -6.1563    -1.0333 C.ar    
  28 N28            8.9402    -8.5688    -3.4102 N.am    
  29 S29            9.4630    -9.9601    -2.6799 S.o2    
  30 C30            7.9905   -11.0175    -2.6139 C.3     
  31 O31           10.4195   -10.4932    -3.5856 O.2     
  32 O32            9.8409    -9.5493    -1.3732 O.2     
  33 H33            0.5689     3.0119    -0.3868 H       
  34 H34            3.3706     2.1344    -3.4861 H       
  35 H35            1.9540     3.7614    -2.3110 H       
  36 H36            0.4956    -0.4311     0.7621 H       
  37 H37           -0.6849     2.2390     0.6939 H       
  38 H38           -1.0660    -0.0771     2.6452 H       
  39 H39           -2.0463     1.4077     2.5925 H       
  40 H40           -2.0875     0.2652     1.2282 H       
  41 H41            0.9820     1.2901     3.0684 H       
  42 H42            1.4196     2.6062     1.9528 H       
  43 H43            0.0017     2.7749     3.0156 H       
  44 H44            3.6235    -1.8312    -2.2638 H       
  45 H45            4.2502    -1.1650    -0.7363 H       
  46 H46            4.5105    -3.6718    -0.9220 H       
  47 H47            3.5364    -3.1636     0.4828 H       
  48 H48            0.3772    -4.0484    -1.5226 H       
  49 H49            0.8090    -3.4120     0.0865 H       
  50 H50            0.1264    -1.5407    -1.3355 H       
  51 H51            1.2665    -2.0459    -2.6063 H       
  52 H52            3.7691    -7.0782    -3.5266 H       
  53 H53            5.0574    -4.7792    -0.2888 H       
  54 H54            6.3970    -8.3190    -4.0499 H       
  55 H55            9.4285    -7.0026    -1.3401 H       
  56 H56            7.8165    -5.5569    -0.1928 H       
  57 H57            9.2803    -8.3227    -4.2847 H       
  58 H58            7.6783   -11.2693    -3.6274 H       
  59 H59            8.2238   -11.9316    -2.0679 H       
  60 H60            7.1847   -10.4870    -2.1066 H       
@<TRIPOS>BOND
   1    1    2 ar
   2    1    6 ar
   3    1   33 1
   4    2    3 ar
   5    2    7 1
   6    3    4 ar
   7    3   11 1
   8    4    5 ar
   9    5    6 ar
  10    5   34 1
  11    6   35 1
  12    7    8 1
  13    7   36 1
  14    8    9 1
  15    8   10 1
  16    8   37 1
  17    9   38 1
  18    9   39 1
  19    9   40 1
  20   10   41 1
  21   10   42 1
  22   10   43 1
  23   11   12 1
  24   11   16 1
  25   12   13 1
  26   12   44 1
  27   12   45 1
  28   13   14 1
  29   13   46 1
  30   13   47 1
  31   14   15 1
  32   14   17 am
  33   15   16 1
  34   15   48 1
  35   15   49 1
  36   16   50 1
  37   16   51 1
  38   17   18 1
  39   17   19 2
  40   18   20 2
  41   18   23 1
  42   20   21 1
  43   20   52 1
  44   21   22 ar
  45   21   24 ar
  46   22   23 1
  47   22   27 ar
  48   23   53 1
  49   24   25 ar
  50   24   54 1
  51   25   26 ar
  52   25   28 1
  53   26   27 ar
  54   26   55 1
  55   27   56 1
  56   28   29 am
  57   28   57 1
  58   29   30 1
  59   29   31 2
  60   29   32 2
  61   30   58 1
  62   30   59 1
  63   30   60 1

#	End of record

