#	Name: ASD01884780
#	Creating user name:	WinNT
#	Creation time:	15. 06. 2019 19:48

#	Modifying user name:	WinNT
#	Modification time:	15. 06. 2019 19:48

#	Program:	/corina/corina34_cracker 3.40 0067  02.08.2006

@<TRIPOS>MOLECULE
ASD01884780
  36   37    0    0    0
SMALL
NO_CHARGES


@<TRIPOS>ATOM
   1 N1            -0.0164     1.3558     0.0095 N.am    
   2 C2             0.0021    -0.0041     0.0020 C.2     
   3 C3             1.1311     2.0602     0.0023 C.2     
   4 C4             2.3675     1.3934    -0.0130 C.2     
   5 C5             2.3923     0.0297    -0.0206 C.2     
   6 C6             1.1794    -0.6793    -0.0124 C.2     
   7 C7            -1.2996     2.0625     0.0194 C.3     
   8 C8            -1.7330     2.2971     1.4435 C.ar    
   9 O9             1.0970     3.2807     0.0088 O.2     
  10 O10            1.1849    -2.0402    -0.0193 O.3     
  11 C11           -0.0856    -2.6941    -0.0102 C.3     
  12 C12            0.1210    -4.2101    -0.0198 C.3     
  13 C13           -1.3540     3.4535     2.0995 C.ar    
  14 C14           -2.5139     1.3584     2.0916 C.ar    
  15 C15           -2.9121     1.5732     3.3977 C.ar    
  16 C16           -2.5284     2.7277     4.0565 C.ar    
  17 C17           -1.7508     3.6690     3.4058 C.ar    
  18 Cl18          -3.0281     2.9982     5.6969 Cl      
  19 O19            0.7613    -4.6113     1.1931 O.3     
  20 C20            1.0019    -6.0168     1.2859 C.3     
  21 H21           -0.9287    -0.5518     0.0079 H       
  22 H22            3.2897     1.9553    -0.0192 H       
  23 H23            3.3338    -0.4993    -0.0327 H       
  24 H24           -1.1910     3.0201    -0.4898 H       
  25 H25           -2.0496     1.4610    -0.4942 H       
  26 H26           -0.6352    -2.4080     0.8866 H       
  27 H27           -0.6524    -2.3991    -0.8933 H       
  28 H28           -0.8451    -4.7080    -0.1025 H       
  29 H29            0.7459    -4.4862    -0.8691 H       
  30 H30           -0.7476     4.1885     1.5912 H       
  31 H31           -2.8133     0.4572     1.5772 H       
  32 H32           -3.5228     0.8401     3.9036 H       
  33 H33           -1.4507     4.5702     3.9197 H       
  34 H34            1.6451    -6.3304     0.4637 H       
  35 H35            1.4901    -6.2399     2.2346 H       
  36 H36            0.0541    -6.5521     1.2303 H       
@<TRIPOS>BOND
   1    1    2 1
   2    1    3 am
   3    1    7 1
   4    2    6 2
   5    2   21 1
   6    3    4 1
   7    3    9 2
   8    4    5 2
   9    4   22 1
  10    5    6 1
  11    5   23 1
  12    6   10 1
  13    7    8 1
  14    7   24 1
  15    7   25 1
  16    8   13 ar
  17    8   14 ar
  18   10   11 1
  19   11   12 1
  20   11   26 1
  21   11   27 1
  22   12   19 1
  23   12   28 1
  24   12   29 1
  25   13   17 ar
  26   13   30 1
  27   14   15 ar
  28   14   31 1
  29   15   16 ar
  30   15   32 1
  31   16   17 ar
  32   16   18 1
  33   17   33 1
  34   19   20 1
  35   20   34 1
  36   20   35 1
  37   20   36 1

#	End of record

