#	Name: ASD03240153
#	Creating user name:	WinNT
#	Creation time:	15. 06. 2019 20:34

#	Modifying user name:	WinNT
#	Modification time:	15. 06. 2019 20:34

#	Program:	/corina/corina34_cracker 3.40 0067  02.08.2006

@<TRIPOS>MOLECULE
ASD03240153
  70   76    0    0    0
SMALL
NO_CHARGES


@<TRIPOS>ATOM
   1 C1            -0.0171     1.4119     0.0098 C.ar    
   2 C2             0.0021    -0.0041     0.0020 C.ar    
   3 C3             1.1873     2.1167     0.0021 C.ar    
   4 C4             2.3717     1.3854    -0.0132 C.ar    
   5 C5             2.3140    -0.0227    -0.0202 C.ar    
   6 N6             1.1555    -0.6618    -0.0126 N.ar    
   7 C7             3.5737    -0.8017    -0.0370 C.ar    
   8 C8             3.6805     2.0807    -0.0224 C.ar    
   9 C9             3.9259     3.0983    -0.9435 C.ar    
  10 C10            5.1463     3.7424    -0.9470 C.ar    
  11 C11            6.1253     3.3801    -0.0394 C.ar    
  12 C12            5.8876     2.3712     0.8769 C.ar    
  13 C13            4.6691     1.7238     0.8937 C.ar    
  14 C14            3.6564    -2.0140     0.6475 C.ar    
  15 C15            4.8327    -2.7351     0.6282 C.ar    
  16 C16            5.9286    -2.2578    -0.0683 C.ar    
  17 C17            5.8529    -1.0557    -0.7488 C.ar    
  18 C18            4.6802    -0.3285    -0.7421 C.ar    
  19 C19            7.2103    -3.0503    -0.0853 C.3     
  20 N20            7.1977    -3.9773    -1.2248 N.3     
  21 C21            8.5163    -4.5947    -1.4156 C.3     
  22 C22            8.5062    -5.4384    -2.6923 C.3     
  23 C23            7.4280    -6.5193    -2.5754 C.3     
  24 C24            6.0721    -5.8520    -2.3289 C.3     
  25 C25            6.1528    -4.9963    -1.0627 C.3     
  26 C26            7.3724    -7.3155    -3.8536 C.2     
  27 N27            7.9883    -8.4441    -4.0878 N.2     
  28 N28            7.7228    -8.8515    -5.2780 N.2     
  29 C29            6.9175    -7.9955    -5.8669 C.2     
  30 N30            6.6707    -6.9948    -4.9662 N.pl3   
  31 C31           -1.2813    -0.7086     0.0111 C.2     
  32 C32           -2.4244    -0.0032     0.0262 C.2     
  33 N33           -2.4446     1.3604     0.0337 N.am    
  34 C34           -1.3143     2.0946     0.0320 C.2     
  35 O35           -1.3700     3.3111     0.0389 O.2     
  36 C36            6.3768    -8.0971    -7.2401 C.ar    
  37 C37            6.7189    -9.1874    -8.0394 C.ar    
  38 C38            6.2049    -9.2682    -9.3221 C.ar    
  39 C39            5.3652    -8.2559    -9.7644 C.ar    
  40 C40            5.0674    -7.2027    -8.9183 C.ar    
  41 N41            5.5651    -7.1519    -7.7002 N.ar    
  42 H42            1.2002     3.1966     0.0074 H       
  43 H43            3.1625     3.3815    -1.6530 H       
  44 H44            5.3375     4.5308    -1.6600 H       
  45 H45            7.0792     3.8865    -0.0463 H       
  46 H46            6.6558     2.0926     1.5831 H       
  47 H47            4.4846     0.9363     1.6094 H       
  48 H48            2.8017    -2.3875     1.1919 H       
  49 H49            4.8981    -3.6739     1.1582 H       
  50 H50            6.7119    -0.6878    -1.2902 H       
  51 H51            4.6221     0.6096    -1.2740 H       
  52 H52            8.0568    -2.3701    -0.1796 H       
  53 H53            7.3001    -3.6158     0.8422 H       
  54 H54            9.2733    -3.8151    -1.5014 H       
  55 H55            8.7463    -5.2314    -0.5613 H       
  56 H56            8.2899    -4.7998    -3.5488 H       
  57 H57            9.4803    -5.9090    -2.8253 H       
  58 H58            7.6648    -7.1815    -1.7426 H       
  59 H59            5.8175    -5.2199    -3.1796 H       
  60 H60            5.3071    -6.6181    -2.2022 H       
  61 H61            6.3938    -5.6312    -0.2101 H       
  62 H62            5.1931    -4.5084    -0.8922 H       
  63 H63            6.1120    -6.2131    -5.0996 H       
  64 H64           -1.3088    -1.7882     0.0052 H       
  65 H65           -3.3636    -0.5364     0.0324 H       
  66 H66           -3.3005     1.8168     0.0443 H       
  67 H67            7.3758    -9.9577    -7.6631 H       
  68 H68            6.4522   -10.1004    -9.9645 H       
  69 H69            4.9483    -8.2898   -10.7601 H       
  70 H70            4.4141    -6.4135    -9.2600 H       
@<TRIPOS>BOND
   1    1    2 ar
   2    1    3 ar
   3    1   34 1
   4    2   31 1
   5    2    6 ar
   6    3    4 ar
   7    3   42 1
   8    4    5 ar
   9    4    8 1
  10    5    6 ar
  11    5    7 1
  12    7   14 ar
  13    7   18 ar
  14    8    9 ar
  15    8   13 ar
  16    9   10 ar
  17    9   43 1
  18   10   11 ar
  19   10   44 1
  20   11   12 ar
  21   11   45 1
  22   12   13 ar
  23   12   46 1
  24   13   47 1
  25   14   15 ar
  26   14   48 1
  27   15   16 ar
  28   15   49 1
  29   16   17 ar
  30   16   19 1
  31   17   18 ar
  32   17   50 1
  33   18   51 1
  34   19   20 1
  35   19   52 1
  36   19   53 1
  37   20   21 1
  38   20   25 1
  39   21   22 1
  40   21   54 1
  41   21   55 1
  42   22   23 1
  43   22   56 1
  44   22   57 1
  45   23   24 1
  46   23   26 1
  47   23   58 1
  48   24   25 1
  49   24   59 1
  50   24   60 1
  51   25   61 1
  52   25   62 1
  53   26   27 2
  54   26   30 1
  55   27   28 1
  56   28   29 2
  57   29   30 1
  58   29   36 1
  59   30   63 1
  60   31   32 2
  61   31   64 1
  62   32   33 1
  63   32   65 1
  64   33   34 am
  65   33   66 1
  66   34   35 2
  67   36   37 ar
  68   36   41 ar
  69   37   38 ar
  70   37   67 1
  71   38   39 ar
  72   38   68 1
  73   39   40 ar
  74   39   69 1
  75   40   41 ar
  76   40   70 1

#	End of record

