#	Name: ASD01810727
#	Creating user name:	WinNT
#	Creation time:	15. 06. 2019 19:25

#	Modifying user name:	WinNT
#	Modification time:	15. 06. 2019 19:25

#	Program:	/corina/corina34_cracker 3.40 0067  02.08.2006

@<TRIPOS>MOLECULE
ASD01810727
  67   70    0    0    0
SMALL
NO_CHARGES


@<TRIPOS>ATOM
   1 C1             1.2154    -0.1881    -0.8753 C.ar    
   2 C2            -0.0302     0.4053    -0.6649 C.ar    
   3 C3            -0.0867     1.6901    -0.1026 C.ar    
   4 C4             1.0880     2.3142     0.2191 C.ar    
   5 C5             2.2966     1.6616    -0.0187 C.ar    
   6 N6             2.3221     0.4473    -0.5513 N.ar    
   7 C7            -1.2697    -0.3074    -1.0288 C.2     
   8 N8            -1.2042    -1.5406    -1.5686 N.am    
   9 O9            -2.3503     0.2177    -0.8417 O.2     
  10 C10           -2.4350    -2.2484    -1.9299 C.3     
  11 C11           -2.8781    -1.8188    -3.3299 C.3     
  12 C12           -2.1787    -3.7567    -1.9165 C.3     
  13 N13            3.4878     2.2905     0.3053 N.pl3   
  14 C14            4.6949     1.5915     0.2130 C.ar    
  15 C15            4.7191     0.2200     0.4147 C.ar    
  16 C16            5.8704     2.2706    -0.0866 C.ar    
  17 C17            7.0663     1.5841    -0.1788 C.ar    
  18 C18            7.1016     0.2194     0.0253 C.ar    
  19 C19            5.9262    -0.4727     0.3215 C.ar    
  20 C20            5.8405     3.7604    -0.3119 C.3     
  21 C21            5.9614    -1.9345     0.5411 C.2     
  22 N22            7.0422    -2.5046     1.1097 N.am    
  23 O23            5.0157    -2.6219     0.2088 O.2     
  24 C24            8.1420    -1.6769     1.6235 C.3     
  25 C25            7.1401    -3.9654     1.2332 C.3     
  26 C26            7.4194    -4.3188     2.6974 C.3     
  27 C27            8.6626    -3.5632     3.1722 C.3     
  28 C28            8.4080    -2.0608     3.0825 C.3     
  29 C29            8.9603    -3.9346     4.6021 C.ar    
  30 C30           10.1721    -4.5199     4.9236 C.ar    
  31 C31            8.0228    -3.6834     5.5882 C.ar    
  32 C32            8.2889    -4.0204     6.8992 C.ar    
  33 C33            9.5077    -4.6162     7.2299 C.ar    
  34 C34           10.4513    -4.8619     6.2304 C.ar    
  35 C35            9.7907    -4.9687     8.5887 C.1     
  36 N36           10.0153    -5.2482     9.6666 N.1     
  37 H37            1.2718    -1.1782    -1.3031 H       
  38 H38           -1.0357     2.1753     0.0718 H       
  39 H39            1.0787     3.3032     0.6530 H       
  40 H40           -0.3422    -1.9596    -1.7178 H       
  41 H41           -3.2177    -2.0064    -1.2109 H       
  42 H42           -3.7938    -2.3454    -3.5987 H       
  43 H43           -3.0607    -0.7443    -3.3395 H       
  44 H44           -2.0954    -2.0608    -4.0489 H       
  45 H45           -1.8630    -4.0627    -0.9190 H       
  46 H46           -3.0944    -4.2833    -2.1853 H       
  47 H47           -1.3960    -3.9986    -2.6354 H       
  48 H48            3.4842     3.2158     0.5962 H       
  49 H49            3.8064    -0.3101     0.6434 H       
  50 H50            7.9762     2.1171    -0.4119 H       
  51 H51            8.0381    -0.3135    -0.0484 H       
  52 H52            5.9991     4.2745     0.6361 H       
  53 H53            6.6284     4.0379    -1.0121 H       
  54 H54            4.8722     4.0463    -0.7227 H       
  55 H55            9.0394    -1.8524     1.0301 H       
  56 H56            7.8643    -0.6244     1.5673 H       
  57 H57            6.2014    -4.4223     0.9197 H       
  58 H58            7.9540    -4.3313     0.6073 H       
  59 H59            6.5642    -4.0335     3.3101 H       
  60 H60            7.5896    -5.3918     2.7866 H       
  61 H61            9.5120    -3.8303     2.5435 H       
  62 H62            9.2841    -1.5212     3.4423 H       
  63 H63            7.5438    -1.8011     3.6938 H       
  64 H64           10.9009    -4.7097     4.1495 H       
  65 H65            7.0807    -3.2222     5.3311 H       
  66 H66            7.5565    -3.8235     7.6680 H       
  67 H67           11.3958    -5.3228     6.4793 H       
@<TRIPOS>BOND
   1    1    2 ar
   2    1    6 ar
   3    1   37 1
   4    2    3 ar
   5    2    7 1
   6    3    4 ar
   7    3   38 1
   8    4    5 ar
   9    4   39 1
  10    5    6 ar
  11    5   13 1
  12    7    8 am
  13    7    9 2
  14    8   10 1
  15    8   40 1
  16   10   11 1
  17   10   12 1
  18   10   41 1
  19   11   42 1
  20   11   43 1
  21   11   44 1
  22   12   45 1
  23   12   46 1
  24   12   47 1
  25   13   14 1
  26   13   48 1
  27   14   15 ar
  28   14   16 ar
  29   15   19 ar
  30   15   49 1
  31   16   17 ar
  32   16   20 1
  33   17   18 ar
  34   17   50 1
  35   18   19 ar
  36   18   51 1
  37   19   21 1
  38   20   52 1
  39   20   53 1
  40   20   54 1
  41   21   22 am
  42   21   23 2
  43   22   24 1
  44   22   25 1
  45   24   28 1
  46   24   55 1
  47   24   56 1
  48   25   26 1
  49   25   57 1
  50   25   58 1
  51   26   27 1
  52   26   59 1
  53   26   60 1
  54   27   28 1
  55   27   29 1
  56   27   61 1
  57   28   62 1
  58   28   63 1
  59   29   30 ar
  60   29   31 ar
  61   30   34 ar
  62   30   64 1
  63   31   32 ar
  64   31   65 1
  65   32   33 ar
  66   32   66 1
  67   33   34 ar
  68   33   35 1
  69   34   67 1
  70   35   36 3

#	End of record

