#	Name: ASD03092505
#	Creating user name:	WinNT
#	Creation time:	15. 06. 2019 20:32

#	Modifying user name:	WinNT
#	Modification time:	15. 06. 2019 20:32

#	Program:	/corina/corina34_cracker 3.40 0067  02.08.2006

@<TRIPOS>MOLECULE
ASD03092505
  56   60    0    0    0
SMALL
NO_CHARGES


@<TRIPOS>ATOM
   1 O1             0.4846     0.3849     0.3502 O.3     
   2 N2             0.6567    -0.8091     0.3284 N.2     
   3 C3             1.9147    -1.1247     0.2379 C.2     
   4 C4             2.6353     0.1571     0.1980 C.2     
   5 C5             1.6215     1.0806     0.2764 C.2     
   6 C6             4.0870     0.3925     0.0989 C.2     
   7 O7             4.8530    -0.5501     0.0380 O.2     
   8 N8             4.5654     1.6522     0.0756 N.am    
   9 C9             2.5083    -2.5089     0.1855 C.3     
  10 C10            6.0083     1.8861    -0.0229 C.3     
  11 S11            6.7306     5.7576    -0.7213 S.3     
  12 C12            6.6127     5.3513     0.9349 C.2     
  13 N13            6.3778     4.0808     1.0717 N.2     
  14 C14            6.2775     3.3689    -0.0298 C.2     
  15 C15            6.4368     4.0785    -1.1665 C.2     
  16 C16            7.1058     8.5653     2.6756 C.3     
  17 C17            7.0086     7.6049     1.4798 C.3     
  18 N18            6.7483     6.2468     1.9800 N.3     
  19 C19            5.5667     6.2188     2.8548 C.3     
  20 C20            5.7486     7.2605     3.9699 C.3     
  21 C21            7.1536     7.0564     4.5849 C.3     
  22 C22            8.0717     7.9391     3.7094 C.3     
  23 O23            5.8197     8.5594     3.3374 O.3     
  24 C24            7.2689     3.3332    -4.7520 C.ar    
  25 C25            7.3658     3.8561    -3.4807 C.ar    
  26 C26            6.3753     3.5427    -2.5403 C.ar    
  27 C27            5.3251     2.7058    -2.9407 C.ar    
  28 C28            5.3078     2.2278    -4.2331 C.ar    
  29 N29            6.2618     2.5482    -5.0876 N.ar    
  30 C30            4.1845     1.3265    -4.6770 C.3     
  31 C31            8.3237     3.6670    -5.7753 C.3     
  32 H32            1.7239     2.1558     0.2780 H       
  33 H33            3.9544     2.4041     0.1242 H       
  34 H34            2.5801    -2.8344    -0.8522 H       
  35 H35            3.5028    -2.4949     0.6315 H       
  36 H36            1.8714    -3.1985     0.7394 H       
  37 H37            6.5095     1.4298     0.8308 H       
  38 H38            6.3859     1.4440    -0.9448 H       
  39 H39            7.4185     9.5649     2.3737 H       
  40 H40            6.1931     7.9161     0.8270 H       
  41 H41            7.9470     7.6161     0.9253 H       
  42 H42            4.6762     6.4580     2.2735 H       
  43 H43            5.4619     5.2272     3.2951 H       
  44 H44            4.9593     7.2005     4.7192 H       
  45 H45            7.1710     7.3955     5.6206 H       
  46 H46            7.4521     6.0101     4.5186 H       
  47 H47            8.8249     7.3301     3.2095 H       
  48 H48            8.5437     8.7155     4.3115 H       
  49 H49            8.1927     4.4973    -3.2132 H       
  50 H50            4.5415     2.4392    -2.2470 H       
  51 H51            3.3719     1.9306    -5.0806 H       
  52 H52            4.5478     0.6454    -5.4466 H       
  53 H53            3.8216     0.7517    -3.8250 H       
  54 H54            9.1237     2.9283    -5.7267 H       
  55 H55            7.8801     3.6572    -6.7709 H       
  56 H56            8.7302     4.6570    -5.5683 H       
@<TRIPOS>BOND
   1    1    2 1
   2    1    5 1
   3    2    3 2
   4    3    4 1
   5    3    9 1
   6    4    5 2
   7    4    6 1
   8    5   32 1
   9    6    7 2
  10    6    8 am
  11    8   10 1
  12    8   33 1
  13    9   34 1
  14    9   35 1
  15    9   36 1
  16   10   14 1
  17   10   37 1
  18   10   38 1
  19   11   12 1
  20   11   15 1
  21   12   13 2
  22   12   18 1
  23   13   14 1
  24   14   15 2
  25   15   26 1
  26   16   17 1
  27   16   22 1
  28   16   23 1
  29   16   39 1
  30   17   18 1
  31   17   40 1
  32   17   41 1
  33   18   19 1
  34   19   20 1
  35   19   42 1
  36   19   43 1
  37   20   21 1
  38   20   23 1
  39   20   44 1
  40   21   22 1
  41   21   45 1
  42   21   46 1
  43   22   47 1
  44   22   48 1
  45   24   25 ar
  46   24   29 ar
  47   24   31 1
  48   25   26 ar
  49   25   49 1
  50   26   27 ar
  51   27   28 ar
  52   27   50 1
  53   28   29 ar
  54   28   30 1
  55   30   51 1
  56   30   52 1
  57   30   53 1
  58   31   54 1
  59   31   55 1
  60   31   56 1

#	End of record

