#	Name: ASD03091755
#	Creating user name:	WinNT
#	Creation time:	15. 06. 2019 20:31

#	Modifying user name:	WinNT
#	Modification time:	15. 06. 2019 20:31

#	Program:	/corina/corina34_cracker 3.40 0067  02.08.2006

@<TRIPOS>MOLECULE
ASD03091755
  51   54    0    0    0
SMALL
NO_CHARGES


@<TRIPOS>ATOM
   1 C1            -0.0150     1.4030     0.0122 C.ar    
   2 C2            -1.2279     2.0727     0.0343 C.ar    
   3 C3            -2.4095     1.3526     0.0344 C.ar    
   4 C4            -2.3909    -0.0327     0.0125 C.ar    
   5 C5            -1.1912    -0.7141    -0.0096 C.ar    
   6 C6             0.0034     0.0001    -0.0096 C.ar    
   7 O7             1.1657     2.0697     0.0167 O.3     
   8 C8             2.2614     1.4539     0.6938 C.3     
   9 N9             2.4083     0.0563     0.2863 N.am    
  10 C10            1.3155    -0.6785    -0.0267 C.2     
  11 C11           -3.6883    -0.7995     0.0133 C.3     
  12 C12           -4.1977    -0.9263    -1.3994 C.ar    
  13 C13           -5.0319     0.0380    -1.9296 C.ar    
  14 C14           -3.8288    -2.0106    -2.1833 C.ar    
  15 C15           -4.3194    -2.0883    -3.4753 C.ar    
  16 C16           -5.1590    -1.0848    -3.9408 C.ar    
  17 N17           -5.4837    -0.0639    -3.1650 N.ar    
  18 O18            1.4104    -1.8567    -0.3116 O.2     
  19 C19            3.7407    -0.5489     0.2168 C.3     
  20 C20           -3.7282     2.0815     0.0591 C.3     
  21 O21           -5.6461    -1.1492    -5.2055 O.3     
  22 F22           -1.2568     3.4232     0.0560 F       
  23 C23            4.5953     0.1751    -0.8440 C.3     
  24 C24            4.4691    -0.3755     1.5612 C.3     
  25 C25            5.7408     0.4477     1.2704 C.3     
  26 C26            5.4066     1.2156    -0.0326 C.3     
  27 O27            4.8241    -1.6531     2.0938 O.3     
  28 C28           -6.5045    -0.0866    -5.6250 C.3     
  29 H29           -1.1792    -1.7939    -0.0263 H       
  30 H30            3.1780     1.9943     0.4575 H       
  31 H31            2.0880     1.4972     1.7691 H       
  32 H32           -3.5229    -1.7928     0.4304 H       
  33 H33           -4.4235    -0.2690     0.6184 H       
  34 H34           -5.3183     0.8860    -1.3253 H       
  35 H35           -3.1737    -2.7760    -1.7942 H       
  36 H36           -4.0524    -2.9181    -4.1129 H       
  37 H37            3.6573    -1.6076    -0.0288 H       
  38 H38           -4.0563     2.2737    -0.9625 H       
  39 H39           -4.4718     1.4702     0.5705 H       
  40 H40           -3.6105     3.0279     0.5870 H       
  41 H41            5.2645    -0.5282    -1.3396 H       
  42 H42            3.9565     0.6737    -1.5730 H       
  43 H43            3.8312     0.1588     2.2652 H       
  44 H44            5.9381     1.1454     2.0843 H       
  45 H45            6.5951    -0.2115     1.1162 H       
  46 H46            6.3180     1.4929    -0.5622 H       
  47 H47            4.8005     2.0957     0.1823 H       
  48 H48            5.2869    -1.6109     2.9418 H       
  49 H49           -7.3792    -0.0483    -4.9758 H       
  50 H50           -5.9667     0.8597    -5.5661 H       
  51 H51           -6.8223    -0.2605    -6.6530 H       
@<TRIPOS>BOND
   1    1    6 ar
   2    1    7 1
   3    1    2 ar
   4    2    3 ar
   5    2   22 1
   6    3    4 ar
   7    3   20 1
   8    4    5 ar
   9    4   11 1
  10    5    6 ar
  11    5   29 1
  12    6   10 1
  13    7    8 1
  14    8    9 1
  15    8   30 1
  16    8   31 1
  17    9   10 am
  18    9   19 1
  19   10   18 2
  20   11   12 1
  21   11   32 1
  22   11   33 1
  23   12   14 ar
  24   12   13 ar
  25   13   17 ar
  26   13   34 1
  27   14   15 ar
  28   14   35 1
  29   15   16 ar
  30   15   36 1
  31   16   21 1
  32   16   17 ar
  33   19   24 1
  34   19   23 1
  35   19   37 1
  36   20   38 1
  37   20   39 1
  38   20   40 1
  39   21   28 1
  40   23   26 1
  41   23   41 1
  42   23   42 1
  43   24   25 1
  44   24   27 1
  45   24   43 1
  46   25   26 1
  47   25   44 1
  48   25   45 1
  49   26   46 1
  50   26   47 1
  51   27   48 1
  52   28   49 1
  53   28   50 1
  54   28   51 1

#	End of record

