#	Name: ASD01814331
#	Creating user name:	WinNT
#	Creation time:	15. 06. 2019 19:32

#	Modifying user name:	WinNT
#	Modification time:	15. 06. 2019 19:32

#	Program:	/corina/corina34_cracker 3.40 0067  02.08.2006

@<TRIPOS>MOLECULE
ASD01814331
  50   54    0    0    0
SMALL
NO_CHARGES


@<TRIPOS>ATOM
   1 C1            -0.0168     1.3869     0.0097 C.ar    
   2 C2             0.0021    -0.0041     0.0020 C.ar    
   3 C3             1.1801    -0.6897    -0.0129 C.ar    
   4 C4             2.3948     0.0129    -0.0207 C.ar    
   5 C5             2.3717     1.4290    -0.0129 C.ar    
   6 C6             1.1455     2.1015     0.0024 C.ar    
   7 C7             3.6293    -0.6694    -0.0365 C.ar    
   8 C8             4.8031     0.0063    -0.0446 C.ar    
   9 C9             4.8359     1.4095    -0.0374 C.ar    
  10 C10            3.6406     2.1511    -0.0211 C.ar    
  11 C11            6.1026     2.1526    -0.0470 C.2     
  12 N12            6.0328     3.5041    -0.0399 N.am    
  13 C13            4.8302     4.1313    -0.0241 C.2     
  14 N14            3.6961     3.4935    -0.0158 N.2     
  15 C15            3.6424    -2.1763    -0.0442 C.3     
  16 O16            7.1745     1.5748    -0.0604 O.2     
  17 C17            7.2655     4.2957    -0.0490 C.3     
  18 C18            7.3178     5.1723     1.2039 C.3     
  19 C19            8.6052     5.9990     1.1945 C.3     
  20 C20            8.6317     6.8873    -0.0509 C.3     
  21 C21            8.5794     6.0107    -1.3038 C.3     
  22 C22            7.2920     5.1840    -1.2944 C.3     
  23 O23            7.2930     4.3426     2.3671 O.3     
  24 C24            3.5087    -2.6726    -1.4608 C.2     
  25 C25            4.5613    -2.9337    -2.3441 C.2     
  26 N26            4.0519    -3.3479    -3.4759 N.2     
  27 N27            2.6569    -3.3634    -3.3483 N.pl3   
  28 C28            2.3493    -2.9499    -2.1011 C.2     
  29 H29           -0.9630     1.9076     0.0169 H       
  30 H30           -0.9305    -0.5488     0.0083 H       
  31 H31            1.1786    -1.7697    -0.0183 H       
  32 H32            1.1188     3.1811     0.0081 H       
  33 H33            5.7317    -0.5451    -0.0563 H       
  34 H34            4.8132     5.2111    -0.0182 H       
  35 H35            4.5813    -2.5336     0.3789 H       
  36 H36            2.8098    -2.5499     0.5518 H       
  37 H37            8.1264     3.6273    -0.0610 H       
  38 H38            6.4569     5.8406     1.2159 H       
  39 H39            8.6425     6.6235     2.0871 H       
  40 H40            9.4662     5.3306     1.1825 H       
  41 H41            7.7708     7.5557    -0.0389 H       
  42 H42            9.5489     7.4763    -0.0577 H       
  43 H43            8.5983     6.6436    -2.1911 H       
  44 H44            9.4403     5.3423    -1.3159 H       
  45 H45            7.2547     4.5595    -2.1870 H       
  46 H46            6.4311     5.8523    -1.2824 H       
  47 H47            7.3237     4.8324     3.2003 H       
  48 H48            5.6129    -2.8139    -2.1292 H       
  49 H49            2.0241    -3.6282    -4.0341 H       
  50 H50            1.3555    -2.8514    -1.6899 H       
@<TRIPOS>BOND
   1    1    2 ar
   2    1    6 ar
   3    1   29 1
   4    2    3 ar
   5    2   30 1
   6    3    4 ar
   7    3   31 1
   8    4    5 ar
   9    4    7 ar
  10    5    6 ar
  11    5   10 ar
  12    6   32 1
  13    7    8 ar
  14    7   15 1
  15    8    9 ar
  16    8   33 1
  17    9   10 ar
  18    9   11 1
  19   10   14 1
  20   11   12 am
  21   11   16 2
  22   12   13 1
  23   12   17 1
  24   13   14 2
  25   13   34 1
  26   15   24 1
  27   15   35 1
  28   15   36 1
  29   17   18 1
  30   17   22 1
  31   17   37 1
  32   18   19 1
  33   18   23 1
  34   18   38 1
  35   19   20 1
  36   19   39 1
  37   19   40 1
  38   20   21 1
  39   20   41 1
  40   20   42 1
  41   21   22 1
  42   21   43 1
  43   21   44 1
  44   22   45 1
  45   22   46 1
  46   23   47 1
  47   24   25 1
  48   24   28 2
  49   25   26 2
  50   25   48 1
  51   26   27 1
  52   27   28 1
  53   27   49 1
  54   28   50 1

#	End of record

