#	Name: ASD07931868
#	Creating user name:	WinNT
#	Creation time:	15. 06. 2019 21:13

#	Modifying user name:	WinNT
#	Modification time:	15. 06. 2019 21:13

#	Program:	/corina/corina34_cracker 3.40 0067  02.08.2006

@<TRIPOS>MOLECULE
ASD07931868
  46   46    0    0    0
SMALL
NO_CHARGES


@<TRIPOS>ATOM
   1 C1            -0.0180     1.4730     0.0101 C.2     
   2 C2             0.0021    -0.0041     0.0020 C.ar    
   3 C3             1.2188    -0.6888    -0.0133 C.ar    
   4 C4             1.2302    -2.0682    -0.0208 C.ar    
   5 C5             0.0396    -2.7731    -0.0133 C.ar    
   6 C6            -1.1697    -2.1009     0.0019 C.ar    
   7 C7            -1.1956    -0.7217     0.0154 C.ar    
   8 O8             1.0256     2.0947     0.0035 O.2     
   9 O9            -1.1936     2.1307     0.0193 O.3     
  10 N10            0.0597    -4.2531    -0.0220 N.pl3   
  11 O11            1.1226    -4.8477    -0.0357 O.2     
  12 O12           -0.9867    -4.8764    -0.0154 O.2     
  13 C13           -1.1244     4.0990    -1.4129 C.3     
  14 C14           -1.1373     3.5816     0.0269 C.3     
  15 C15           -2.3624     4.1357     0.7570 C.3     
  16 C16           -2.3753     3.6182     2.1968 C.3     
  17 Cl17           0.3928     3.5671    -2.2291 Cl      
  18 N18           -3.5798     3.6978     0.0698 N.am    
  19 C19           -4.7132     4.4185     0.1818 C.2     
  20 O20           -4.7252     5.4315     0.8529 O.2     
  21 O21           -5.8321     4.0162    -0.4498 O.3     
  22 C22           -7.0154     4.8412    -0.2844 C.3     
  23 C23           -6.7318     6.2505    -0.8083 C.3     
  24 C24           -8.1774     4.2295    -1.0695 C.3     
  25 C25           -7.3838     4.9131     1.1989 C.3     
  26 H26            2.1488    -0.1398    -0.0195 H       
  27 H27            2.1707    -2.5991    -0.0330 H       
  28 H28           -2.0953    -2.6572     0.0073 H       
  29 H29           -2.1401    -0.1983     0.0317 H       
  30 H30           -1.9849     3.7003    -1.9500 H       
  31 H31           -1.1717     5.1880    -1.4080 H       
  32 H32           -0.2315     3.9073     0.5382 H       
  33 H33           -2.3201     5.2248     0.7627 H       
  34 H34           -1.4695     3.9440     2.7081 H       
  35 H35           -3.2481     4.0130     2.7169 H       
  36 H36           -2.4176     2.5290     2.1911 H       
  37 H37           -3.5703     2.8892    -0.4659 H       
  38 H38           -6.4693     6.1993    -1.8650 H       
  39 H39           -7.6200     6.8699    -0.6842 H       
  40 H40           -5.9039     6.6863    -0.2490 H       
  41 H41           -8.3795     3.2256    -0.6962 H       
  42 H42           -9.0657     4.8489    -0.9453 H       
  43 H43           -7.9150     4.1783    -2.1262 H       
  44 H44           -6.5559     5.3489     1.7582 H       
  45 H45           -8.2721     5.5325     1.3230 H       
  46 H46           -7.5858     3.9091     1.5721 H       
@<TRIPOS>BOND
   1    1    2 1
   2    1    8 2
   3    1    9 1
   4    2    3 ar
   5    2    7 ar
   6    3    4 ar
   7    3   26 1
   8    4    5 ar
   9    4   27 1
  10    5    6 ar
  11    5   10 1
  12    6    7 ar
  13    6   28 1
  14    7   29 1
  15    9   14 1
  16   10   11 2
  17   10   12 2
  18   13   17 1
  19   13   14 1
  20   13   30 1
  21   13   31 1
  22   14   15 1
  23   14   32 1
  24   15   16 1
  25   15   18 1
  26   15   33 1
  27   16   34 1
  28   16   35 1
  29   16   36 1
  30   18   19 am
  31   18   37 1
  32   19   20 2
  33   19   21 1
  34   21   22 1
  35   22   23 1
  36   22   25 1
  37   22   24 1
  38   23   38 1
  39   23   39 1
  40   23   40 1
  41   24   41 1
  42   24   42 1
  43   24   43 1
  44   25   44 1
  45   25   45 1
  46   25   46 1

#	End of record

