#	Name: ASD02408131
#	Creating user name:	WinNT
#	Creation time:	15. 06. 2019 20:21

#	Modifying user name:	WinNT
#	Modification time:	15. 06. 2019 20:21

#	Program:	/corina/corina34_cracker 3.40 0067  02.08.2006

@<TRIPOS>MOLECULE
ASD02408131
  47   49    0    0    0
SMALL
NO_CHARGES


@<TRIPOS>ATOM
   1 C1            -1.0618     1.7002     0.2355 C.ar    
   2 C2            -1.3102     0.3394     0.2295 C.ar    
   3 C3             0.2203     2.1700     0.0113 C.ar    
   4 C4             1.2518     1.2795    -0.2185 C.ar    
   5 C5             1.0029    -0.0805    -0.2243 C.ar    
   6 C6            -0.2775    -0.5504    -0.0004 C.ar    
   7 C7             0.4916     3.6523     0.0172 C.3     
   8 C8             0.7251     4.1147     1.4324 C.2     
   9 N9             0.9865     5.4169     1.6572 N.am    
  10 N10            0.6620     3.2409     2.4001 N.2     
  11 C11            0.8602     3.5944     3.6765 C.2     
  12 C12            1.1426     4.9361     3.9820 C.2     
  13 C13            1.2002     5.8657     2.9119 C.2     
  14 N14            0.7877     2.6554     4.6760 N.pl3   
  15 C15            1.3504     1.3119     4.4832 C.3     
  16 O16            1.4415     7.0421     3.1206 O.2     
  17 Cl17          -2.3595     2.8185     0.5171 Cl      
  18 C18            0.2668     0.2744     4.7930 C.3     
  19 C19           -0.2899     0.5273     6.1959 C.3     
  20 C20           -0.9237     1.9192     6.2518 C.3     
  21 C21            0.1514     2.9772     5.9606 C.3     
  22 C22           -1.3483    -0.5282     6.5223 C.3     
  23 C23           -1.8151    -0.3521     7.9687 C.3     
  24 O24           -2.8036    -1.3380     8.2735 O.3     
  25 C25            1.3607     5.3541     5.3341 C.1     
  26 N26            1.5338     5.6856     6.4068 N.1     
  27 H27           -2.3106    -0.0278     0.4048 H       
  28 H28            2.2524     1.6460    -0.3938 H       
  29 H29            1.8094    -0.7761    -0.4039 H       
  30 H30           -0.4714    -1.6128    -0.0055 H       
  31 H31            1.3761     3.8622    -0.5842 H       
  32 H32           -0.3656     4.1802    -0.4008 H       
  33 H33            1.0218     6.0365     0.9117 H       
  34 H34            1.6802     1.1987     3.4505 H       
  35 H35            2.1956     1.1697     5.1566 H       
  36 H36           -0.5373     0.3588     4.0619 H       
  37 H37            0.6972    -0.7260     4.7472 H       
  38 H38            0.5192     0.4672     6.9239 H       
  39 H39           -1.7166     1.9881     5.5070 H       
  40 H40           -1.3406     2.0895     7.2445 H       
  41 H41            0.8968     2.9691     6.7559 H       
  42 H42           -0.3118     3.9621     5.9011 H       
  43 H43           -2.1978    -0.4111     5.8495 H       
  44 H44           -0.9201    -1.5228     6.3973 H       
  45 H45           -0.9656    -0.4692     8.6415 H       
  46 H46           -2.2432     0.6425     8.0937 H       
  47 H47           -3.1456    -1.2860     9.1766 H       
@<TRIPOS>BOND
   1    1    2 ar
   2    1    3 ar
   3    1   17 1
   4    2    6 ar
   5    2   27 1
   6    3    4 ar
   7    3    7 1
   8    4    5 ar
   9    4   28 1
  10    5    6 ar
  11    5   29 1
  12    6   30 1
  13    7    8 1
  14    7   31 1
  15    7   32 1
  16    8    9 1
  17    8   10 2
  18    9   13 am
  19    9   33 1
  20   10   11 1
  21   11   12 2
  22   11   14 1
  23   12   13 1
  24   12   25 1
  25   13   16 2
  26   14   15 1
  27   14   21 1
  28   15   18 1
  29   15   34 1
  30   15   35 1
  31   18   19 1
  32   18   36 1
  33   18   37 1
  34   19   20 1
  35   19   22 1
  36   19   38 1
  37   20   21 1
  38   20   39 1
  39   20   40 1
  40   21   41 1
  41   21   42 1
  42   22   23 1
  43   22   43 1
  44   22   44 1
  45   23   24 1
  46   23   45 1
  47   23   46 1
  48   24   47 1
  49   25   26 3

#	End of record

