#	Name: ASD01915312
#	Creating user name:	WinNT
#	Creation time:	15. 06. 2019 20:05

#	Modifying user name:	WinNT
#	Modification time:	15. 06. 2019 20:05

#	Program:	/corina/corina34_cracker 3.40 0067  02.08.2006

@<TRIPOS>MOLECULE
ASD01915312
  42   45    0    0    0
SMALL
NO_CHARGES


@<TRIPOS>ATOM
   1 N1             0.0250     1.3221    -0.0221 N.2     
   2 C2             0.0738    -0.0289    -0.0517 C.2     
   3 N3             1.3361    -0.3693    -0.0700 N.2     
   4 O4             2.0353     0.6217    -0.0545 O.3     
   5 C5             1.2730     1.7193    -0.0242 C.2     
   6 C6             1.7584     3.1458     0.0017 C.3     
   7 C7            -1.0882    -0.9526    -0.0617 C.ar    
   8 C8            -0.8842    -2.3276    -0.0932 C.ar    
   9 C9            -1.9807    -3.1892    -0.1019 C.ar    
  10 C10           -3.2754    -2.6658    -0.0789 C.ar    
  11 C11           -3.4691    -1.2994    -0.0477 C.ar    
  12 C12           -2.3858    -0.4426    -0.0336 C.ar    
  13 N13            2.8765     3.2764     0.9475 N.am    
  14 C14            4.0744     3.7110     0.2062 C.3     
  15 C15            3.5239     4.4211    -1.0557 C.3     
  16 C16            2.2879     3.5454    -1.3917 C.3     
  17 C17            2.8160     3.0388     2.2728 C.2     
  18 O18            1.7478     2.7836     2.7971 O.2     
  19 C19            4.0369     3.0879     3.0826 C.2     
  20 C20            4.0897     2.9844     4.4441 C.2     
  21 C21            5.3670     3.0632     4.9462 C.2     
  22 C22            6.3283     3.2256     4.0296 C.2     
  23 S23            5.6687     3.2818     2.4570 S.3     
  24 C24            7.7979     3.3380     4.3438 C.3     
  25 C25           -1.7797    -4.6067    -0.1347 C.1     
  26 N26           -1.6202    -5.7311    -0.1608 N.1     
  27 H27            0.9448     3.8088     0.2957 H       
  28 H28            0.1192    -2.7266    -0.1112 H       
  29 H29           -4.1262    -3.3311    -0.0860 H       
  30 H30           -4.4718    -0.8986    -0.0300 H       
  31 H31           -2.5442     0.6254    -0.0088 H       
  32 H32            4.6609     4.4060     0.8071 H       
  33 H33            4.6789     2.8492    -0.0767 H       
  34 H34            3.2273     5.4453    -0.8296 H       
  35 H35            4.2520     4.3968    -1.8666 H       
  36 H36            2.5833     2.6631    -1.9596 H       
  37 H37            1.5419     4.1240    -1.9364 H       
  38 H38            3.2150     2.8540     5.0640 H       
  39 H39            5.5791     2.9991     6.0032 H       
  40 H40            8.2475     2.3451     4.3388 H       
  41 H41            8.2835     3.9606     3.5924 H       
  42 H42            7.9255     3.7897     5.3276 H       
@<TRIPOS>BOND
   1    1    2 1
   2    1    5 2
   3    2    3 2
   4    2    7 1
   5    3    4 1
   6    4    5 1
   7    5    6 1
   8    6   13 1
   9    6   16 1
  10    6   27 1
  11    7    8 ar
  12    7   12 ar
  13    8    9 ar
  14    8   28 1
  15    9   10 ar
  16    9   25 1
  17   10   11 ar
  18   10   29 1
  19   11   12 ar
  20   11   30 1
  21   12   31 1
  22   13   14 1
  23   13   17 am
  24   14   15 1
  25   14   32 1
  26   14   33 1
  27   15   16 1
  28   15   34 1
  29   15   35 1
  30   16   36 1
  31   16   37 1
  32   17   18 2
  33   17   19 1
  34   19   20 2
  35   19   23 1
  36   20   21 1
  37   20   38 1
  38   21   22 2
  39   21   39 1
  40   22   23 1
  41   22   24 1
  42   24   40 1
  43   24   41 1
  44   24   42 1
  45   25   26 3

#	End of record

