#	Name: ASD00960033
#	Creating user name:	WinNT
#	Creation time:	15. 06. 2019 18:53

#	Modifying user name:	WinNT
#	Modification time:	15. 06. 2019 18:53

#	Program:	/corina/corina34_cracker 3.40 0067  02.08.2006

@<TRIPOS>MOLECULE
ASD00960033
  36   38    0    0    0
SMALL
NO_CHARGES


@<TRIPOS>ATOM
   1 C1            -0.0189     1.5409     0.0105 C.3     
   2 C2             0.0021    -0.0041     0.0020 C.3     
   3 C3            -0.6985    -0.3962     1.3218 C.3     
   4 O4            -1.5292     0.7387     1.6500 O.3     
   5 C5            -0.7297     1.8993     1.3344 C.3     
   6 C6            -1.6237     3.1262     1.1437 C.3     
   7 C7            -1.5461    -1.6259     1.1205 C.2     
   8 C8            -1.1026    -2.9090     1.1904 C.2     
   9 N9            -2.8642    -1.6293     0.8485 N.pl3   
  10 C10           -3.2856    -2.9408     0.7339 C.2     
  11 C11           -2.1880    -3.7525     0.9466 C.2     
  12 N12           -3.8106    -0.6094     0.6756 N.2     
  13 C13           -5.0529    -0.9088     0.4136 C.2     
  14 N14           -5.4734    -2.1677     0.3007 N.2     
  15 C15           -4.6472    -3.1904     0.4478 C.2     
  16 O16           -2.2379     3.4662     2.3884 O.3     
  17 N17           -5.1094    -4.4852     0.3252 N.pl3   
  18 C18           -0.7764    -0.5442    -1.1993 C.3     
  19 I19           -2.1578    -5.8470     0.9093 I       
  20 O20            1.3126     2.0597     0.0006 O.3     
  21 *21            1.4358     3.3108    -0.6380 Du      
  22 O22            1.3471    -0.4865    -0.0166 O.3     
  23 *23            2.0811    -0.0947    -1.1549 Du      
  24 H24           -0.5818     1.9199    -0.8424 H       
  25 H25            0.0385    -0.5666     2.1065 H       
  26 H26            0.0026     2.0810     2.1211 H       
  27 H27           -1.0207     3.9646     0.7951 H       
  28 H28           -2.3953     2.9025     0.4070 H       
  29 H29           -0.0895    -3.2207     1.3976 H       
  30 H30           -5.7656    -0.1078     0.2841 H       
  31 H31           -2.8202     4.2368     2.3421 H       
  32 H32           -6.0452    -4.6497     0.1301 H       
  33 H33           -4.4984    -5.2306     0.4342 H       
  34 H34           -0.3071    -0.2001    -2.1209 H       
  35 H35           -0.7727    -1.6339    -1.1745 H       
  36 H36           -1.8042    -0.1834    -1.1582 H       
@<TRIPOS>BOND
   1    1    2 1
   2    1   20 1
   3    1    5 1
   4    1   24 1
   5    2   18 1
   6    2   22 1
   7    2    3 1
   8    3    4 1
   9    3    7 1
  10    3   25 1
  11    4    5 1
  12    5    6 1
  13    5   26 1
  14    6   16 1
  15    6   27 1
  16    6   28 1
  17    7    8 2
  18    7    9 1
  19    8   11 1
  20    8   29 1
  21    9   10 1
  22    9   12 1
  23   10   11 2
  24   10   15 1
  25   11   19 1
  26   12   13 2
  27   13   14 1
  28   13   30 1
  29   14   15 2
  30   15   17 1
  31   16   31 1
  32   17   32 1
  33   17   33 1
  34   18   34 1
  35   18   35 1
  36   18   36 1
  37   20   21 1
  38   22   23 1

#	End of record

