#	Name: ASD01917298
#	Creating user name:	WinNT
#	Creation time:	15. 06. 2019 20:09

#	Modifying user name:	WinNT
#	Modification time:	15. 06. 2019 20:09

#	Program:	/corina/corina34_cracker 3.40 0067  02.08.2006

@<TRIPOS>MOLECULE
ASD01917298
  54   57    0    0    0
SMALL
NO_CHARGES


@<TRIPOS>ATOM
   1 C1            -0.0168     1.3889     0.0097 C.ar    
   2 C2             0.0021    -0.0041     0.0020 C.ar    
   3 C3             1.2225    -0.6606    -0.0132 C.ar    
   4 C4             2.3820     0.0991    -0.0202 C.ar    
   5 C5             2.2883     1.4815    -0.0119 C.ar    
   6 N6             1.1168     2.0790     0.0026 N.ar    
   7 C7            -1.3134     2.1059     0.0197 C.2     
   8 O8            -2.3544     1.4791     0.0212 O.2     
   9 N9            -1.3382     3.4534     0.0271 N.am    
  10 C10           -2.6202     4.1624     0.0371 C.3     
  11 C11           -3.4818     3.8063     1.2612 C.3     
  12 C12           -4.8851     4.3843     1.0684 C.3     
  13 C13           -4.8102     5.8924     0.8223 C.3     
  14 C14           -3.8915     6.1587    -0.3830 C.3     
  15 C15           -4.2821     5.1559    -1.4932 C.3     
  16 C16           -3.4679     3.8775    -1.2242 C.3     
  17 C17           -2.4672     5.7064     0.0341 C.3     
  18 C18           -5.1762     9.4902    -1.6953 C.ar    
  19 C19           -6.3902    10.0331    -2.1103 C.ar    
  20 C20           -6.4287    11.3533    -2.5299 C.ar    
  21 C21           -5.2514    12.0850    -2.5198 C.ar    
  22 C22           -4.0796    11.4804    -2.0941 C.ar    
  23 N23           -4.0713    10.2253    -1.7010 N.ar    
  24 C24           -5.1193     8.0820    -1.2380 C.2     
  25 O25           -6.1289     7.4058    -1.2260 O.2     
  26 N26           -3.9478     7.5510    -0.8352 N.am    
  27 C27           -7.7211    11.9792    -2.9872 C.3     
  28 C28            3.5460     2.3117    -0.0195 C.3     
  29 H29           -0.9212    -0.5643     0.0082 H       
  30 H30            1.2691    -1.7396    -0.0191 H       
  31 H31            3.3489    -0.3819    -0.0317 H       
  32 H32           -0.5072     3.9538     0.0259 H       
  33 H33           -3.5441     2.7226     1.3605 H       
  34 H34           -3.0327     4.2308     2.1591 H       
  35 H35           -5.3593     3.9024     0.2134 H       
  36 H36           -5.4796     4.1937     1.9620 H       
  37 H37           -5.8081     6.2776     0.6124 H       
  38 H38           -4.4054     6.3864     1.7056 H       
  39 H39           -5.3489     4.9382    -1.4430 H       
  40 H40           -4.0280     5.5629    -2.4719 H       
  41 H41           -2.8174     3.6623    -2.0720 H       
  42 H42           -4.1384     3.0375    -1.0431 H       
  43 H43           -2.2151     6.0762     1.0280 H       
  44 H44           -1.7258     6.0243    -0.6991 H       
  45 H45           -7.2884     9.4335    -2.1055 H       
  46 H46           -5.2474    13.1162    -2.8410 H       
  47 H47           -3.1605    12.0475    -2.0849 H       
  48 H48           -3.1419     8.0908    -0.8447 H       
  49 H49           -8.2281    12.4305    -2.1343 H       
  50 H50           -7.5097    12.7466    -3.7319 H       
  51 H51           -8.3604    11.2132    -3.4262 H       
  52 H52            3.8394     2.5173    -1.0490 H       
  53 H53            3.3639     3.2518     0.5011 H       
  54 H54            4.3444     1.7663     0.4838 H       
@<TRIPOS>BOND
   1    1    2 ar
   2    1    6 ar
   3    1    7 1
   4    2    3 ar
   5    2   29 1
   6    3    4 ar
   7    3   30 1
   8    4    5 ar
   9    4   31 1
  10    5    6 ar
  11    5   28 1
  12    7    8 2
  13    7    9 am
  14    9   10 1
  15    9   32 1
  16   10   11 1
  17   10   16 1
  18   10   17 1
  19   11   12 1
  20   11   33 1
  21   11   34 1
  22   12   13 1
  23   12   35 1
  24   12   36 1
  25   13   14 1
  26   13   37 1
  27   13   38 1
  28   14   15 1
  29   14   17 1
  30   14   26 1
  31   15   16 1
  32   15   39 1
  33   15   40 1
  34   16   41 1
  35   16   42 1
  36   17   43 1
  37   17   44 1
  38   18   19 ar
  39   18   23 ar
  40   18   24 1
  41   19   20 ar
  42   19   45 1
  43   20   21 ar
  44   20   27 1
  45   21   22 ar
  46   21   46 1
  47   22   23 ar
  48   22   47 1
  49   24   25 2
  50   24   26 am
  51   26   48 1
  52   27   49 1
  53   27   50 1
  54   27   51 1
  55   28   52 1
  56   28   53 1
  57   28   54 1

#	End of record

