#	Name: ASD01811128
#	Creating user name:	WinNT
#	Creation time:	15. 06. 2019 19:26

#	Modifying user name:	WinNT
#	Modification time:	15. 06. 2019 19:26

#	Program:	/corina/corina34_cracker 3.40 0067  02.08.2006

@<TRIPOS>MOLECULE
ASD01811128
  59   63    0    0    0
SMALL
NO_CHARGES


@<TRIPOS>ATOM
   1 C1             8.8469    -2.0727    -0.0036 C.2     
   2 C2             8.1921    -3.2055    -0.5054 C.2     
   3 C3             6.8288    -3.2275    -0.5520 C.2     
   4 C4             6.1043    -2.1137    -0.0959 C.2     
   5 N5             6.7696    -1.0206     0.3889 N.am    
   6 C6             8.1324    -1.0101     0.4309 C.2     
   7 C7             4.7032    -2.1338    -0.1427 C.2     
   8 C8             3.9898    -1.0569     0.2975 C.2     
   9 C9             4.6773     0.0653     0.7958 C.2     
  10 C10            6.0868     0.0552     0.8296 C.2     
  11 O11            6.6907     1.0232     1.2601 O.2     
  12 C12            3.9353     1.2339     1.2738 C.2     
  13 O13            4.6003     2.3065     1.7503 O.3     
  14 O14            2.7193     1.2374     1.2412 O.2     
  15 C15            3.9848    -3.3448    -0.6798 C.3     
  16 N16            3.5790    -3.0970    -2.0697 N.3     
  17 C17            4.6995    -2.5602    -2.8585 C.3     
  18 C18            4.3445    -2.6685    -4.3418 C.3     
  19 C19            2.9785    -2.0813    -4.5881 C.ar    
  20 C20            2.0899    -1.8592    -3.5581 C.ar    
  21 C21            2.4339    -2.1829    -2.1278 C.3     
  22 C22            2.6204    -1.7623    -5.8894 C.ar    
  23 C23            1.3780    -1.2247    -6.1590 C.ar    
  24 C24            0.4854    -1.0038    -5.1265 C.ar    
  25 C25            0.8408    -1.3209    -3.8312 C.ar    
  26 C26            1.2277    -2.8401    -1.4539 C.3     
  27 C27            1.3631    -4.3618    -1.5376 C.3     
  28 C28            0.1569    -5.0189    -0.8637 C.3     
  29 C29            0.0977    -4.5921     0.6044 C.3     
  30 C30           -0.0377    -3.0704     0.6881 C.3     
  31 C31            1.1685    -2.4133     0.0142 C.3     
  32 H32            9.9258    -2.0501     0.0404 H       
  33 H33            8.7622    -4.0544    -0.8529 H       
  34 H34            6.3110    -4.0938    -0.9365 H       
  35 H35            8.6475    -0.1423     0.8154 H       
  36 H36            2.9104    -1.0657     0.2635 H       
  37 H37            4.0674     3.0539     2.0545 H       
  38 H38            4.6499    -4.2075    -0.6438 H       
  39 H39            3.1010    -3.5418    -0.0729 H       
  40 H40            4.8640    -1.5150    -2.5967 H       
  41 H41            5.6009    -3.1381    -2.6546 H       
  42 H42            5.0834    -2.1258    -4.9313 H       
  43 H43            4.3464    -3.7173    -4.6386 H       
  44 H44            2.6806    -1.2621    -1.5993 H       
  45 H45            3.3175    -1.9351    -6.6960 H       
  46 H46            1.1041    -0.9769    -7.1739 H       
  47 H47           -0.4879    -0.5840    -5.3333 H       
  48 H48            0.1427    -1.1481    -3.0254 H       
  49 H49            0.3141    -2.5282    -1.9601 H       
  50 H50            1.4053    -4.6658    -2.5835 H       
  51 H51            2.2767    -4.6736    -1.0314 H       
  52 H52           -0.7567    -4.7071    -1.3698 H       
  53 H53            0.2534    -6.1030    -0.9233 H       
  54 H54           -0.7616    -5.0603     1.0845 H       
  55 H55            1.0113    -4.9040     1.1106 H       
  56 H56           -0.9513    -2.7586     0.1819 H       
  57 H57           -0.0799    -2.7664     1.7340 H       
  58 H58            2.0821    -2.7251     0.5203 H       
  59 H59            1.0720    -1.3292     0.0738 H       
@<TRIPOS>BOND
   1    1    2 1
   2    1    6 2
   3    1   32 1
   4    2    3 2
   5    2   33 1
   6    3    4 1
   7    3   34 1
   8    4    5 1
   9    4    7 2
  10    5    6 1
  11    5   10 am
  12    6   35 1
  13    7    8 1
  14    7   15 1
  15    8    9 2
  16    8   36 1
  17    9   10 1
  18    9   12 1
  19   10   11 2
  20   12   13 1
  21   12   14 2
  22   13   37 1
  23   15   16 1
  24   15   38 1
  25   15   39 1
  26   16   17 1
  27   16   21 1
  28   17   18 1
  29   17   40 1
  30   17   41 1
  31   18   19 1
  32   18   42 1
  33   18   43 1
  34   19   20 ar
  35   19   22 ar
  36   20   21 1
  37   20   25 ar
  38   21   26 1
  39   21   44 1
  40   22   23 ar
  41   22   45 1
  42   23   24 ar
  43   23   46 1
  44   24   25 ar
  45   24   47 1
  46   25   48 1
  47   26   27 1
  48   26   31 1
  49   26   49 1
  50   27   28 1
  51   27   50 1
  52   27   51 1
  53   28   29 1
  54   28   52 1
  55   28   53 1
  56   29   30 1
  57   29   54 1
  58   29   55 1
  59   30   31 1
  60   30   56 1
  61   30   57 1
  62   31   58 1
  63   31   59 1

#	End of record

