#	Name: ASD01028795
#	Creating user name:	WinNT
#	Creation time:	15. 06. 2019 18:58

#	Modifying user name:	WinNT
#	Modification time:	15. 06. 2019 18:58

#	Program:	/corina/corina34_cracker 3.40 0067  02.08.2006

@<TRIPOS>MOLECULE
ASD01028795
  49   53    0    0    0
SMALL
NO_CHARGES


@<TRIPOS>ATOM
   1 C1            -0.0187     1.5258     0.0104 C.3     
   2 C2             0.0021    -0.0041     0.0020 C.3     
   3 C3            -1.4117    -0.5257     0.0127 C.ar    
   4 C4            -2.0696    -0.7577    -1.1817 C.ar    
   5 C5            -3.3643    -1.2358    -1.1779 C.ar    
   6 C6            -4.0087    -1.4848     0.0324 C.ar    
   7 C7            -3.3411    -1.2492     1.2327 C.ar    
   8 C8            -2.0447    -0.7760     1.2169 C.ar    
   9 C9            -7.9833    -2.9504     0.0775 C.2     
  10 C10           -7.3178    -2.7168     1.2959 C.2     
  11 C11           -6.0427    -2.2467     1.2746 C.2     
  12 C12           -5.4006    -1.9984     0.0429 C.2     
  13 N13           -6.0212    -2.2162    -1.0954 N.2     
  14 N14           -7.3314    -2.6989    -1.1065 N.pl3   
  15 N15           -9.3100    -3.4271    -1.5177 N.2     
  16 N16           -9.1884    -3.3971    -0.2365 N.2     
  17 C17           -8.2059    -3.0123    -2.0873 C.2     
  18 C18           -7.9558    -2.9053    -3.5695 C.3     
  19 N19          -12.5204    -4.6171    -6.3681 N.ar    
  20 C20          -13.4663    -3.7717    -6.6979 C.ar    
  21 C21          -13.3863    -2.4189    -6.3740 C.ar    
  22 C22          -12.3009    -1.9436    -5.6947 C.ar    
  23 C23          -11.2872    -2.8545    -5.3418 C.ar    
  24 C24          -10.1423    -2.4397    -4.6433 C.ar    
  25 C25           -9.1842    -3.3517    -4.3198 C.ar    
  26 C26           -9.3243    -4.6918    -4.6737 C.ar    
  27 C27          -10.4210    -5.1283    -5.3514 C.ar    
  28 C28          -11.4320    -4.2172    -5.7029 C.ar    
  29 F29           -7.6654    -1.5769    -3.8987 F       
  30 F30           -6.8737    -3.7198    -3.9199 F       
  31 N31            1.3595     2.0342     0.0000 N.3     
  32 H32           -0.5459     1.8868    -0.8726 H       
  33 H33           -0.5289     1.8773     0.9072 H       
  34 H34            0.5123    -0.3556    -0.8948 H       
  35 H35            0.5293    -0.3651     0.8851 H       
  36 H36           -1.5693    -0.5641    -2.1191 H       
  37 H37           -3.8771    -1.4163    -2.1111 H       
  38 H38           -3.8358    -1.4404     2.1735 H       
  39 H39           -1.5249    -0.5970     2.1465 H       
  40 H40           -7.8144    -2.9083     2.2356 H       
  41 H41           -5.5203    -2.0630     2.2017 H       
  42 H42          -14.3306    -4.1333    -7.2353 H       
  43 H43          -14.1817    -1.7466    -6.6601 H       
  44 H44          -12.2224    -0.8981    -5.4359 H       
  45 H45          -10.0222    -1.4034    -4.3639 H       
  46 H46           -8.5501    -5.3957    -4.4062 H       
  47 H47          -10.5139    -6.1707    -5.6184 H       
  48 H48            1.3727     3.0431     0.0053 H       
  49 H49            1.8883     1.6616     0.7744 H       
@<TRIPOS>BOND
   1    1    2 1
   2    1   31 1
   3    1   32 1
   4    1   33 1
   5    2    3 1
   6    2   34 1
   7    2   35 1
   8    3    4 ar
   9    3    8 ar
  10    4    5 ar
  11    4   36 1
  12    5    6 ar
  13    5   37 1
  14    6    7 ar
  15    6   12 1
  16    7    8 ar
  17    7   38 1
  18    8   39 1
  19    9   10 1
  20    9   14 1
  21    9   16 2
  22   10   11 2
  23   10   40 1
  24   11   12 1
  25   11   41 1
  26   12   13 2
  27   13   14 1
  28   14   17 1
  29   15   16 1
  30   15   17 2
  31   17   18 1
  32   18   25 1
  33   18   29 1
  34   18   30 1
  35   19   20 ar
  36   19   28 ar
  37   20   21 ar
  38   20   42 1
  39   21   22 ar
  40   21   43 1
  41   22   23 ar
  42   22   44 1
  43   23   24 ar
  44   23   28 ar
  45   24   25 ar
  46   24   45 1
  47   25   26 ar
  48   26   27 ar
  49   26   46 1
  50   27   28 ar
  51   27   47 1
  52   31   48 1
  53   31   49 1

#	End of record

