#	Name: ASD05430565
#	Creating user name:	WinNT
#	Creation time:	15. 06. 2019 21:00

#	Modifying user name:	WinNT
#	Modification time:	15. 06. 2019 21:00

#	Program:	/corina/corina34_cracker 3.40 0067  02.08.2006

@<TRIPOS>MOLECULE
ASD05430565
  28   28    0    0    0
SMALL
NO_CHARGES


@<TRIPOS>ATOM
   1 N1            -0.0158     1.3172     0.0093 N.ar    
   2 C2             0.0021    -0.0041     0.0020 C.ar    
   3 C3             1.1194     1.9934     0.0021 C.ar    
   4 C4             2.3269     1.3179    -0.0131 C.ar    
   5 N5             2.3448    -0.0033    -0.0199 N.ar    
   6 C6             1.2096    -0.6795    -0.0131 C.ar    
   7 C7             1.0990     3.5002     0.0099 C.3     
   8 C8             1.2300    -2.1864    -0.0204 C.3     
   9 C9             1.1238    -2.7048     1.4151 C.3     
  10 C10            0.0482    -2.7085    -0.8399 C.3     
  11 C11            1.2312     4.0046     1.4483 C.3     
  12 C12            2.2658     4.0304    -0.8258 C.3     
  13 H13           -0.9258    -0.5567     0.0083 H       
  14 H14            3.2548     1.8706    -0.0197 H       
  15 H15            0.1587     3.8530    -0.4139 H       
  16 H16            2.1624    -2.5349    -0.4646 H       
  17 H17            0.1915    -2.3562     1.8593 H       
  18 H18            1.1386    -3.7947     1.4099 H       
  19 H19            1.9658    -2.3328     1.9990 H       
  20 H20            0.0630    -3.7984    -0.8452 H       
  21 H21           -0.8842    -2.3599    -0.3958 H       
  22 H22            0.1239    -2.3391    -1.8627 H       
  23 H23            2.1714     3.6518     1.8720 H       
  24 H24            1.2164     5.0945     1.4539 H       
  25 H25            0.3999     3.6269     2.0436 H       
  26 H26            2.1716     3.6711    -1.8505 H       
  27 H27            2.2510     5.1203    -0.8202 H       
  28 H28            3.2060     3.6776    -0.4020 H       
@<TRIPOS>BOND
   1    1    2 ar
   2    1    3 ar
   3    2    6 ar
   4    2   13 1
   5    3    4 ar
   6    3    7 1
   7    4    5 ar
   8    4   14 1
   9    5    6 ar
  10    6    8 1
  11    7   11 1
  12    7   12 1
  13    7   15 1
  14    8    9 1
  15    8   10 1
  16    8   16 1
  17    9   17 1
  18    9   18 1
  19    9   19 1
  20   10   20 1
  21   10   21 1
  22   10   22 1
  23   11   23 1
  24   11   24 1
  25   11   25 1
  26   12   26 1
  27   12   27 1
  28   12   28 1

#	End of record

