#	Name: ASD05790059
#	Creating user name:	WinNT
#	Creation time:	15. 06. 2019 21:03

#	Modifying user name:	WinNT
#	Modification time:	15. 06. 2019 21:03

#	Program:	/corina/corina34_cracker 3.40 0067  02.08.2006

@<TRIPOS>MOLECULE
ASD05790059
  75   80    0    0    0
SMALL
NO_CHARGES


@<TRIPOS>ATOM
   1 C1            -0.2081     1.7485     0.3115 C.3     
   2 C2            -0.3148     0.2394     0.3030 C.2     
   3 C3             0.4211    -0.5233    -0.7728 C.3     
   4 C4             1.8884    -0.0756    -0.7781 C.3     
   5 C5             1.9455     1.4550    -0.9287 C.3     
   6 C6             1.2749     2.1283     0.2635 C.3     
   7 C7             2.5967    -0.7458    -1.9591 C.3     
   8 C8             1.9523    -0.3163    -3.2895 C.3     
   9 C9             2.0713     1.1913    -3.3850 C.3     
  10 C10            1.2499     1.8086    -2.2231 C.3     
  11 C11            1.4057     1.8445    -4.6029 C.3     
  12 C12            1.1449     3.2805    -4.1537 C.2     
  13 C13            1.1965     3.2790    -2.6197 C.3     
  14 C14            2.3653     1.8123    -5.7780 C.3     
  15 C15            1.8209     2.4183    -7.0252 C.3     
  16 C16            1.8787     3.9244    -7.0996 C.3     
  17 C17            0.7531     4.5742    -6.3142 C.3     
  18 C18            0.8717     4.3003    -4.8584 C.2     
  19 C19            1.7749     4.3682    -8.5843 C.3     
  20 C20            3.0900     5.1213    -8.8213 C.3     
  21 C21            3.9967     4.4501    -7.7520 C.3     
  22 O22            3.1574     4.3952    -6.6063 O.3     
  23 N23            3.7233     4.8775   -10.1128 N.3     
  24 C24            5.0131     5.5889   -10.1624 C.3     
  25 C25            5.9580     5.1529    -9.0464 C.3     
  26 C26            5.2727     5.2604    -7.6716 C.3     
  27 C27            3.4063     1.9027    -1.0087 C.3     
  28 C28            0.6036     5.5234    -4.0198 C.3     
  29 C29            7.1994     6.0471    -9.0607 C.3     
  30 C30            1.6768     3.1507    -9.5057 C.3     
  31 O31            2.8518     5.2948   -11.2112 O.3     
  32 O32           -0.9709    -0.3401     1.1350 O.2     
  33 H33           -0.7201     2.1576    -0.5595 H       
  34 H34           -0.6588     2.1433     1.2220 H       
  35 H35            0.3658    -1.5921    -0.5661 H       
  36 H36           -0.0289    -0.3127    -1.7430 H       
  37 H37            2.3639    -0.3691     0.1578 H       
  38 H38            1.3686     3.2101     0.1682 H       
  39 H39            1.7616     1.8039     1.1833 H       
  40 H40            3.6478    -0.4571    -1.9589 H       
  41 H41            2.5216    -1.8283    -1.8561 H       
  42 H42            2.4773    -0.7829    -4.1231 H       
  43 H43            0.9017    -0.6066    -3.3031 H       
  44 H44            3.1165     1.4916    -3.3101 H       
  45 H45            0.2421     1.3933    -2.2243 H       
  46 H46            0.4687     1.3422    -4.8431 H       
  47 H47            0.3020     3.7487    -2.2108 H       
  48 H48            2.0897     3.7974    -2.2710 H       
  49 H49            3.2728     2.3480    -5.4995 H       
  50 H50            2.6281     0.7744    -5.9827 H       
  51 H51            2.3757     2.0134    -7.8715 H       
  52 H52            0.7801     2.1113    -7.1275 H       
  53 H53            0.7816     5.6517    -6.4770 H       
  54 H54           -0.2006     4.1868    -6.6726 H       
  55 H55            0.9196     5.0283    -8.7292 H       
  56 H56            2.9722     6.1874    -8.6275 H       
  57 H57            4.2445     3.4374    -8.0703 H       
  58 H58            5.4878     5.3933   -11.1239 H       
  59 H59            4.8299     6.6596   -10.0722 H       
  60 H60            6.2600     4.1195    -9.2162 H       
  61 H61            5.0388     6.3023    -7.4526 H       
  62 H62            5.9240     4.8535    -6.8981 H       
  63 H63            3.9138     1.3476    -1.7976 H       
  64 H64            3.4479     2.9691    -1.2303 H       
  65 H65            3.8980     1.7103    -0.0551 H       
  66 H66            0.3748     6.3672    -4.6707 H       
  67 H67           -0.2431     5.3332    -3.3603 H       
  68 H68            1.4852     5.7543    -3.4219 H       
  69 H69            6.9020     7.0841    -8.9041 H       
  70 H70            7.8778     5.7396    -8.2649 H       
  71 H71            7.7026     5.9548   -10.0231 H       
  72 H72            0.8627     2.5072    -9.1720 H       
  73 H73            1.4832     3.4819   -10.5260 H       
  74 H74            2.6144     2.5957    -9.4755 H       
  75 H75            3.2303     5.1522   -12.0896 H       
@<TRIPOS>BOND
   1    1    2 1
   2    1    6 1
   3    1   33 1
   4    1   34 1
   5    2    3 1
   6    2   32 2
   7    3    4 1
   8    3   35 1
   9    3   36 1
  10    4    5 1
  11    4    7 1
  12    4   37 1
  13    5    6 1
  14    5   27 1
  15    5   10 1
  16    6   38 1
  17    6   39 1
  18    7    8 1
  19    7   40 1
  20    7   41 1
  21    8    9 1
  22    8   42 1
  23    8   43 1
  24    9   10 1
  25    9   11 1
  26    9   44 1
  27   10   13 1
  28   10   45 1
  29   11   12 1
  30   11   14 1
  31   11   46 1
  32   12   13 1
  33   12   18 2
  34   13   47 1
  35   13   48 1
  36   14   15 1
  37   14   49 1
  38   14   50 1
  39   15   16 1
  40   15   51 1
  41   15   52 1
  42   16   17 1
  43   16   22 1
  44   16   19 1
  45   17   18 1
  46   17   53 1
  47   17   54 1
  48   18   28 1
  49   19   30 1
  50   19   20 1
  51   19   55 1
  52   20   21 1
  53   20   23 1
  54   20   56 1
  55   21   22 1
  56   21   26 1
  57   21   57 1
  58   23   24 1
  59   23   31 1
  60   24   25 1
  61   24   58 1
  62   24   59 1
  63   25   26 1
  64   25   29 1
  65   25   60 1
  66   26   61 1
  67   26   62 1
  68   27   63 1
  69   27   64 1
  70   27   65 1
  71   28   66 1
  72   28   67 1
  73   28   68 1
  74   29   69 1
  75   29   70 1
  76   29   71 1
  77   30   72 1
  78   30   73 1
  79   30   74 1
  80   31   75 1

#	End of record

