#	Name: ASD05720018
#	Creating user name:	WinNT
#	Creation time:	15. 06. 2019 21:01

#	Modifying user name:	WinNT
#	Modification time:	15. 06. 2019 21:01

#	Program:	/corina/corina34_cracker 3.40 0067  02.08.2006

@<TRIPOS>MOLECULE
ASD05720018
  70   74    0    0    0
SMALL
NO_CHARGES


@<TRIPOS>ATOM
   1 O1             0.1800     1.1777     1.0519 O.3     
   2 C2             0.1205    -0.1402     0.8304 C.2     
   3 N3             1.3187    -0.7163     0.6630 N.am    
   4 C4             2.3624     0.3137     0.7787 C.3     
   5 C5             1.5717     1.6090     1.0454 C.3     
   6 O6            -0.9245    -0.7583     0.7855 O.2     
   7 C7             3.1537     0.4260    -0.5260 C.3     
   8 C8             2.2013     0.7748    -1.6716 C.3     
   9 C9             4.2103     1.5240    -0.3888 C.3     
  10 C10            2.9888    -3.7945    -0.0704 C.2     
  11 N11            2.7592    -2.4992     0.1649 N.2     
  12 C12            1.5391    -2.0656     0.4204 C.2     
  13 C13            0.4596    -2.9718     0.4476 C.2     
  14 C14            0.6887    -4.2835     0.2099 C.2     
  15 N15            1.9635    -4.7022    -0.0518 N.pl3   
  16 N16            2.5003    -5.9644    -0.3294 N.2     
  17 C17            3.7930    -5.8545    -0.5123 C.2     
  18 C18            4.1573    -4.5098    -0.3672 C.2     
  19 C19            5.5200    -3.9498    -0.5005 C.ar    
  20 C20            6.5853    -4.5338     0.1884 C.ar    
  21 C21            7.8540    -4.0127     0.0639 C.ar    
  22 C22            8.0746    -2.8990    -0.7523 C.ar    
  23 C23            7.0083    -2.3159    -1.4406 C.ar    
  24 C24            5.7419    -2.8406    -1.3198 C.ar    
  25 N25           10.0604    -2.0296    -2.0462 N.pl3   
  26 N26           11.3246    -1.5318    -1.6910 N.2     
  27 C27           11.3957    -1.5645    -0.3856 C.2     
  28 N28           10.2581    -2.0506     0.1032 N.2     
  29 C29            9.4355    -2.3387    -0.8861 C.2     
  30 C30            9.5232    -2.1786    -3.4010 C.3     
  31 O31            9.9583    -3.4234    -3.9517 O.3     
  32 C32            9.4870    -3.6684    -5.2783 C.3     
  33 C33           10.0113    -5.0212    -5.7640 C.3     
  34 Si34           9.3968    -5.3407    -7.4935 Si      
  35 C35           10.0068    -3.9946    -8.6278 C.3     
  36 C36           10.0353    -6.9879    -8.0850 C.3     
  37 C37            7.5339    -5.3590    -7.4972 C.3     
  38 Cl38           9.1786    -4.7378     0.9203 Cl      
  39 H39            3.0278     0.0925     1.6133 H       
  40 H40            1.7437     2.3326     0.2486 H       
  41 H41            1.8453     2.0316     2.0122 H       
  42 H42            3.6430    -0.5248    -0.7371 H       
  43 H43            1.6524     1.6834    -1.4238 H       
  44 H44            2.7746     0.9343    -2.5848 H       
  45 H45            1.4985    -0.0446    -1.8221 H       
  46 H46            3.7291     2.4563    -0.0933 H       
  47 H47            4.9385     1.2348     0.3689 H       
  48 H48            4.7159     1.6631    -1.3444 H       
  49 H49           -0.5406    -2.6222     0.6565 H       
  50 H50           -0.1263    -4.9919     0.2267 H       
  51 H51            4.4666    -6.6669    -0.7418 H       
  52 H52            6.4141    -5.3938     0.8189 H       
  53 H53            7.1784    -1.4555    -2.0708 H       
  54 H54            4.9184    -2.3921    -1.8557 H       
  55 H55           12.2441    -1.2472     0.2027 H       
  56 H56            8.4340    -2.1584    -3.3642 H       
  57 H57            9.8809    -1.3601    -4.0257 H       
  58 H58            8.3970    -3.6792    -5.2804 H       
  59 H59            9.8439    -2.8808    -5.9419 H       
  60 H60           11.1012    -5.0105    -5.7619 H       
  61 H61            9.6544    -5.8088    -5.1004 H       
  62 H62           11.0968    -3.9838    -8.6257 H       
  63 H63            9.6473    -4.1815    -9.6397 H       
  64 H64            9.6333    -3.0308    -8.2818 H       
  65 H65            9.6783    -7.7755    -7.4214 H       
  66 H66            9.6757    -7.1748    -9.0969 H       
  67 H67           11.1252    -6.9771    -8.0829 H       
  68 H68            7.1604    -4.3953    -7.1512 H       
  69 H69            7.1744    -5.5459    -8.5091 H       
  70 H70            7.1770    -6.1466    -6.8336 H       
@<TRIPOS>BOND
   1    1    2 1
   2    1    5 1
   3    2    3 am
   4    2    6 2
   5    3    4 1
   6    3   12 1
   7    4    5 1
   8    4    7 1
   9    4   39 1
  10    5   40 1
  11    5   41 1
  12    7    8 1
  13    7    9 1
  14    7   42 1
  15    8   43 1
  16    8   44 1
  17    8   45 1
  18    9   46 1
  19    9   47 1
  20    9   48 1
  21   10   11 1
  22   10   15 1
  23   10   18 2
  24   11   12 2
  25   12   13 1
  26   13   14 2
  27   13   49 1
  28   14   15 1
  29   14   50 1
  30   15   16 1
  31   16   17 2
  32   17   18 1
  33   17   51 1
  34   18   19 1
  35   19   20 ar
  36   19   24 ar
  37   20   21 ar
  38   20   52 1
  39   21   22 ar
  40   21   38 1
  41   22   23 ar
  42   22   29 1
  43   23   24 ar
  44   23   53 1
  45   24   54 1
  46   25   26 1
  47   25   29 1
  48   25   30 1
  49   26   27 2
  50   27   28 1
  51   27   55 1
  52   28   29 2
  53   30   31 1
  54   30   56 1
  55   30   57 1
  56   31   32 1
  57   32   33 1
  58   32   58 1
  59   32   59 1
  60   33   34 1
  61   33   60 1
  62   33   61 1
  63   34   35 1
  64   34   36 1
  65   34   37 1
  66   35   62 1
  67   35   63 1
  68   35   64 1
  69   36   65 1
  70   36   66 1
  71   36   67 1
  72   37   68 1
  73   37   69 1
  74   37   70 1

#	End of record

