#	Name: ASD02038745
#	Creating user name:	WinNT
#	Creation time:	15. 06. 2019 20:17

#	Modifying user name:	WinNT
#	Modification time:	15. 06. 2019 20:17

#	Program:	/corina/corina34_cracker 3.40 0067  02.08.2006

@<TRIPOS>MOLECULE
ASD02038745
  45   47    0    0    0
SMALL
NO_CHARGES


@<TRIPOS>ATOM
   1 C1             0.1663     1.5106    -0.4133 C.2     
   2 C2             0.1330     0.0524    -0.1698 C.2     
   3 N3             1.2847    -0.6355    -0.0400 N.am    
   4 C4             1.2519    -2.0813     0.1945 C.3     
   5 C5             1.8460    -2.7962    -0.9917 C.ar    
   6 C6             2.5694     0.0624    -0.1335 C.3     
   7 O7            -0.9330    -0.5257    -0.0865 O.2     
   8 N8             1.0402     2.3829     0.1212 N.2     
   9 C9             0.7368     3.5691    -0.3408 C.2     
  10 N10           -0.3226     3.4291    -1.1590 N.pl3   
  11 N11           -0.6495     2.1833    -1.1951 N.2     
  12 C12           -0.9882     4.5102    -1.8901 C.3     
  13 C13            2.5865    -3.9483    -0.8044 C.ar    
  14 C14            1.6455    -2.3029    -2.2673 C.ar    
  15 C15            2.1895    -2.9588    -3.3561 C.ar    
  16 C16            2.9340    -4.1080    -3.1697 C.ar    
  17 C17            3.1314    -4.6047    -1.8934 C.ar    
  18 Cl18           4.0671    -6.0479    -1.6583 Cl      
  19 C19            2.5510     1.0107    -1.3364 C.3     
  20 C20            3.8665     1.7926    -1.3800 C.3     
  21 O21            4.0375     2.5035    -0.1522 O.3     
  22 C22            4.1093     1.6647     1.0025 C.3     
  23 C23            2.8036     0.8777     1.1419 C.3     
  24 C24            2.0630    -2.4131     1.4486 C.3     
  25 H25            0.2199    -2.4035     0.3334 H       
  26 H26            3.3717    -0.6653    -0.2552 H       
  27 H27            1.2444     4.4934    -0.1074 H       
  28 H28           -0.5194     4.6307    -2.8668 H       
  29 H29           -2.0422     4.2653    -2.0207 H       
  30 H30           -0.8981     5.4390    -1.3268 H       
  31 H31            2.7399    -4.3357     0.1920 H       
  32 H32            1.0634    -1.4050    -2.4135 H       
  33 H33            2.0322    -2.5731    -4.3526 H       
  34 H34            3.3582    -4.6206    -4.0204 H       
  35 H35            2.4400     0.4330    -2.2540 H       
  36 H36            1.7171     1.7059    -1.2394 H       
  37 H37            4.6967     1.0998    -1.5176 H       
  38 H38            3.8417     2.4997    -2.2091 H       
  39 H39            4.9427     0.9703     0.8961 H       
  40 H40            4.2595     2.2798     1.8898 H       
  41 H41            1.9748     1.5702     1.2889 H       
  42 H42            2.8733     0.2049     1.9966 H       
  43 H43            1.6333    -1.8960     2.3066 H       
  44 H44            2.0386    -3.4887     1.6231 H       
  45 H45            3.0950    -2.0909     1.3097 H       
@<TRIPOS>BOND
   1    1    2 1
   2    1    8 1
   3    1   11 2
   4    2    3 am
   5    2    7 2
   6    3    4 1
   7    3    6 1
   8    4    5 1
   9    4   24 1
  10    4   25 1
  11    5   13 ar
  12    5   14 ar
  13    6   19 1
  14    6   23 1
  15    6   26 1
  16    8    9 2
  17    9   10 1
  18    9   27 1
  19   10   11 1
  20   10   12 1
  21   12   28 1
  22   12   29 1
  23   12   30 1
  24   13   17 ar
  25   13   31 1
  26   14   15 ar
  27   14   32 1
  28   15   16 ar
  29   15   33 1
  30   16   17 ar
  31   16   34 1
  32   17   18 1
  33   19   20 1
  34   19   35 1
  35   19   36 1
  36   20   21 1
  37   20   37 1
  38   20   38 1
  39   21   22 1
  40   22   23 1
  41   22   39 1
  42   22   40 1
  43   23   41 1
  44   23   42 1
  45   24   43 1
  46   24   44 1
  47   24   45 1

#	End of record

