#	Name: ASD04590664
#	Creating user name:	WinNT
#	Creation time:	15. 06. 2019 20:51

#	Modifying user name:	WinNT
#	Modification time:	15. 06. 2019 20:51

#	Program:	/corina/corina34_cracker 3.40 0067  02.08.2006

@<TRIPOS>MOLECULE
ASD04590664
  54   59    0    0    0
SMALL
NO_CHARGES


@<TRIPOS>ATOM
   1 N1            -0.0171     1.3234    -0.0127 N.ar    
   2 C2             0.0017    -0.0035    -0.0056 C.ar    
   3 N3             1.1290    -0.6954    -0.0121 N.ar    
   4 C4             2.3049    -0.0738    -0.0269 C.ar    
   5 C5             2.3202     1.3369    -0.0353 C.ar    
   6 C6             1.1061     2.0211    -0.0274 C.ar    
   7 N7             3.6011    -0.5123    -0.0365 N.pl3   
   8 C8             4.4892     0.5751    -0.0513 C.2     
   9 C9             3.7254     1.7321    -0.0509 C.2     
  10 N10           -1.2030    -0.6888     0.0098 N.pl3   
  11 C11           -2.4027     0.0123     0.1303 C.ar    
  12 C12            4.0058    -1.9202    -0.0321 C.3     
  13 C13            4.8343    -2.2345    -1.2901 C.3     
  14 C14            6.2215    -2.6982    -0.7997 C.3     
  15 C15            5.9640    -3.2111     0.6389 C.3     
  16 C16            4.9185    -2.2039     1.1789 C.3     
  17 C17           -3.6100    -0.6699     0.0327 C.ar    
  18 C18           -4.7944     0.0345     0.1536 C.ar    
  19 C19           -4.7295     1.4098     0.3700 C.ar    
  20 C20           -3.4882     2.0229     0.4565 C.ar    
  21 N21           -2.3786     1.3186     0.3417 N.ar    
  22 N22           -5.9025     2.1632     0.4981 N.3     
  23 C23           -5.5950     3.5830     0.7196 C.3     
  24 C24           -6.8991     4.3822     0.7746 C.3     
  25 N25           -7.7481     3.8557     1.8525 N.3     
  26 C26           -8.0556     2.4359     1.6309 C.3     
  27 C27           -6.7515     1.6367     1.5759 C.3     
  28 C28            5.8581     0.8380    -0.0658 C.2     
  29 N29            6.2598     2.0690    -0.0768 N.2     
  30 S30            4.8847     3.0629    -0.0692 S.3     
  31 H31            1.0830     3.1009    -0.0339 H       
  32 H32           -1.2117    -1.6560    -0.0632 H       
  33 H33            3.1252    -2.5615     0.0049 H       
  34 H34            4.3562    -3.0289    -1.8632 H       
  35 H35            4.9352    -1.3395    -1.9039 H       
  36 H36            6.5994    -3.5033    -1.4299 H       
  37 H37            6.9208    -1.8621    -0.7871 H       
  38 H38            5.5542    -4.2210     0.6214 H       
  39 H39            6.8780    -3.1742     1.2316 H       
  40 H40            5.4073    -1.2880     1.5110 H       
  41 H41            4.3455    -2.6483     1.9927 H       
  42 H42           -3.6232    -1.7366    -0.1359 H       
  43 H43           -5.7469    -0.4693     0.0816 H       
  44 H44           -3.4295     3.0882     0.6241 H       
  45 H45           -5.0591     3.6963     1.6620 H       
  46 H46           -4.9760     3.9529    -0.0978 H       
  47 H47           -6.6749     5.4312     0.9678 H       
  48 H48           -7.4219     4.2910    -0.1775 H       
  49 H49           -7.3167     3.9959     2.7538 H       
  50 H50           -8.6746     2.0660     2.4484 H       
  51 H51           -8.5916     2.3226     0.6886 H       
  52 H52           -6.9757     0.5877     1.3828 H       
  53 H53           -6.2287     1.7279     2.5280 H       
  54 H54            6.5723     0.0279    -0.0674 H       
@<TRIPOS>BOND
   1    1    2 ar
   2    1    6 ar
   3    2    3 ar
   4    2   10 1
   5    3    4 ar
   6    4    5 ar
   7    4    7 1
   8    5    6 ar
   9    5    9 1
  10    6   31 1
  11    7    8 1
  12    7   12 1
  13    8    9 2
  14    8   28 1
  15    9   30 1
  16   10   11 1
  17   10   32 1
  18   11   17 ar
  19   11   21 ar
  20   12   13 1
  21   12   16 1
  22   12   33 1
  23   13   14 1
  24   13   34 1
  25   13   35 1
  26   14   15 1
  27   14   36 1
  28   14   37 1
  29   15   16 1
  30   15   38 1
  31   15   39 1
  32   16   40 1
  33   16   41 1
  34   17   18 ar
  35   17   42 1
  36   18   19 ar
  37   18   43 1
  38   19   20 ar
  39   19   22 1
  40   20   21 ar
  41   20   44 1
  42   22   23 1
  43   22   27 1
  44   23   24 1
  45   23   45 1
  46   23   46 1
  47   24   25 1
  48   24   47 1
  49   24   48 1
  50   25   26 1
  51   25   49 1
  52   26   27 1
  53   26   50 1
  54   26   51 1
  55   27   52 1
  56   27   53 1
  57   28   29 2
  58   28   54 1
  59   29   30 1

#	End of record

