#	Name: ASD03090325
#	Creating user name:	WinNT
#	Creation time:	15. 06. 2019 20:28

#	Modifying user name:	WinNT
#	Modification time:	15. 06. 2019 20:28

#	Program:	/corina/corina34_cracker 3.40 0067  02.08.2006

@<TRIPOS>MOLECULE
ASD03090325
  50   52    0    0    0
SMALL
NO_CHARGES


@<TRIPOS>ATOM
   1 N1             0.0137     1.1606     1.2857 N.ar    
   2 C2             0.0713    -0.1626     1.2794 C.ar    
   3 C3             1.2674    -0.8195     1.0203 C.ar    
   4 C4             2.4124    -0.0623     0.7651 C.ar    
   5 C5             2.3011     1.3337     0.7823 C.ar    
   6 C6             1.0761     1.9069     1.0487 C.ar    
   7 C7             3.7096    -0.7177     0.4843 C.2     
   8 N8             5.7292    -3.4334    -0.4643 N.pl3   
   9 C9             4.8909    -4.4855    -0.8470 C.ar    
  10 C10            3.6840    -4.2176    -1.4796 C.ar    
  11 C11            2.8558    -5.2591    -1.8576 C.ar    
  12 C12            3.2300    -6.5697    -1.6052 C.ar    
  13 C13            4.4342    -6.8386    -0.9734 C.ar    
  14 C14            5.2673    -5.7992    -0.5999 C.ar    
  15 N15            3.8797    -1.9659     0.0974 N.2     
  16 C16            5.1803    -2.2143    -0.0619 C.2     
  17 N17            5.8617    -1.1276     0.2210 N.2     
  18 N18            4.9281    -0.1397     0.5738 N.pl3   
  19 C19            5.2179     1.2412     0.9681 C.3     
  20 C20            5.2625     2.1150    -0.2589 C.2     
  21 N21            5.5151     3.4334    -0.1384 N.am    
  22 F22            4.7973    -8.1165    -0.7277 F       
  23 F23            1.6814    -4.9988    -2.4727 F       
  24 N24           -1.0779    -0.9022     1.5354 N.pl3   
  25 O25            5.0712     1.6319    -1.3547 O.2     
  26 C26            5.5585     4.2829    -1.3312 C.3     
  27 F27            2.4202    -7.5860    -1.9749 F       
  28 C28            5.8611     5.7251    -0.9195 C.3     
  29 C29           -1.0231    -2.3662     1.5304 C.3     
  30 C30           -2.4119    -2.9296     1.8382 C.3     
  31 H31            1.3112    -1.8986     1.0166 H       
  32 H32            3.1645     1.9534     0.5900 H       
  33 H33            0.9842     2.9829     1.0630 H       
  34 H34            6.6920    -3.5507    -0.4783 H       
  35 H35            3.3921    -3.1965    -1.6761 H       
  36 H36            6.2054    -6.0089    -0.1076 H       
  37 H37            4.4378     1.5984     1.6403 H       
  38 H38            6.1812     1.2793     1.4766 H       
  39 H39            5.6682     3.8198     0.7380 H       
  40 H40           -1.9160    -0.4489     1.7173 H       
  41 H41            6.3386     3.9257    -2.0035 H       
  42 H42            4.5952     4.2448    -1.8397 H       
  43 H43            5.8935     6.3571    -1.8069 H       
  44 H44            5.0811     6.0823    -0.2472 H       
  45 H45            6.8245     5.7632    -0.4109 H       
  46 H46           -0.6990    -2.7143     0.5497 H       
  47 H47           -0.3171    -2.7059     2.2882 H       
  48 H48           -2.7361    -2.5815     2.8190 H       
  49 H49           -3.1180    -2.5898     1.0805 H       
  50 H50           -2.3712    -4.0188     1.8345 H       
@<TRIPOS>BOND
   1    1    2 ar
   2    1    6 ar
   3    2    3 ar
   4    2   24 1
   5    3    4 ar
   6    3   31 1
   7    4    5 ar
   8    4    7 1
   9    5    6 ar
  10    5   32 1
  11    6   33 1
  12    7   15 2
  13    7   18 1
  14    8    9 1
  15    8   16 1
  16    8   34 1
  17    9   10 ar
  18    9   14 ar
  19   10   11 ar
  20   10   35 1
  21   11   12 ar
  22   11   23 1
  23   12   13 ar
  24   12   27 1
  25   13   14 ar
  26   13   22 1
  27   14   36 1
  28   15   16 1
  29   16   17 2
  30   17   18 1
  31   18   19 1
  32   19   20 1
  33   19   37 1
  34   19   38 1
  35   20   21 am
  36   20   25 2
  37   21   26 1
  38   21   39 1
  39   24   29 1
  40   24   40 1
  41   26   28 1
  42   26   41 1
  43   26   42 1
  44   28   43 1
  45   28   44 1
  46   28   45 1
  47   29   30 1
  48   29   46 1
  49   29   47 1
  50   30   48 1
  51   30   49 1
  52   30   50 1

#	End of record

