#	Name: ASD01140067
#	Creating user name:	WinNT
#	Creation time:	15. 06. 2019 18:59

#	Modifying user name:	WinNT
#	Modification time:	15. 06. 2019 18:59

#	Program:	/corina/corina34_cracker 3.40 0067  02.08.2006

@<TRIPOS>MOLECULE
ASD01140067
  70   73    0    0    0
SMALL
NO_CHARGES


@<TRIPOS>ATOM
   1 C1             0.0475     3.2895    -1.1289 C.3     
   2 C2            -0.3404     1.8112    -1.1547 C.3     
   3 C3             0.0732     1.1349     0.1545 C.3     
   4 C4             1.5820     1.2876     0.3500 C.3     
   5 C5             1.9602     2.7655     0.4073 C.3     
   6 C6             1.5520     3.4419    -0.9006 C.3     
   7 C7             2.0304     0.5533     1.6107 C.3     
   8 C8             3.5484     0.6926     1.7840 C.3     
   9 C9             4.1015     1.5044     0.6134 C.3     
  10 C10            3.4741     2.8973     0.6269 C.3     
  11 C11            5.5928     1.5640     0.5846 C.3     
  12 C12            6.1571     2.9834     0.8071 C.3     
  13 C13            5.6397     3.9106    -0.2622 C.3     
  14 C14            4.1138     3.8157    -0.3980 C.3     
  15 C15            6.3910     0.7613     1.6218 C.3     
  16 C16            7.8350     1.2731     1.3313 C.3     
  17 C17            7.6742     2.6963     0.7393 C.3     
  18 C18           -1.8581     1.6904    -1.3255 C.3     
  19 C19            1.2577     3.4572     1.5797 C.3     
  20 C20            5.8908     3.5337     2.2063 C.3     
  21 C21            8.4164     3.7021     1.5757 C.2     
  22 C22            8.8644     5.0054     0.9659 C.3     
  23 O23            8.6534     3.4653     2.7359 O.2     
  24 H24            2.0749     0.8290    -0.5175 H       
  25 O25            0.3080     1.1650    -2.2525 O.3     
  26 O26           -2.2502     2.3101    -2.5520 O.3     
  27 C27           -3.6547     2.2528    -2.8091 C.3     
  28 C28           -3.9580     2.9428    -4.1406 C.3     
  29 C29           -5.4618     2.8815    -4.4159 C.3     
  30 H30           -0.2082     3.7367    -2.0967 H       
  31 H31           -0.5137     3.8075    -0.3559 H       
  32 H32           -0.4729     1.5655     0.9871 H       
  33 H33           -0.1685     0.0683     0.0918 H       
  34 H34            2.0884     2.9820    -1.7320 H       
  35 H35            1.8006     4.5036    -0.8550 H       
  36 H36            1.5208     0.9442     2.4871 H       
  37 H37            1.7849    -0.5094     1.5095 H       
  38 H38            3.7625     1.2046     2.7211 H       
  39 H39            4.0052    -0.2968     1.7918 H       
  40 H40            3.7777     0.9981    -0.3171 H       
  41 H41            3.5660     3.3346     1.6258 H       
  42 H42            5.9299     1.2173    -0.4199 H       
  43 H43            5.9196     4.9449    -0.0203 H       
  44 H44            6.1068     3.6581    -1.2244 H       
  45 H45            3.8750     3.4558    -1.4078 H       
  46 H46            3.6865     4.8223    -0.2986 H       
  47 H47            6.0893     0.9731     2.6370 H       
  48 H48            6.3252    -0.3078     1.4101 H       
  49 H49            8.4062     1.3134     2.2564 H       
  50 H50            8.3202     0.6191     0.6098 H       
  51 H51            8.0047     2.7242    -0.2936 H       
  52 H52           -2.1389     0.6374    -1.3444 H       
  53 H53           -2.3580     2.1849    -0.4926 H       
  54 H54            1.5547     2.9804     2.5138 H       
  55 H55            1.5405     4.5096     1.6030 H       
  56 H56            0.1779     3.3738     1.4566 H       
  57 H57            6.4716     2.9688     2.9354 H       
  58 H58            6.1814     4.5835     2.2451 H       
  59 H59            4.8296     3.4416     2.4371 H       
  60 H60            8.5631     5.0392    -0.0811 H       
  61 H61            8.4047     5.8349     1.5033 H       
  62 H62            9.9493     5.0847     1.0346 H       
  63 H63            0.0797     1.5340    -3.1167 H       
  64 H64           -3.9728     1.2114    -2.8588 H       
  65 H65           -4.1919     2.7589    -2.0070 H       
  66 H66           -3.6399     3.9842    -4.0909 H       
  67 H67           -3.4209     2.4367    -4.9428 H       
  68 H68           -5.7799     1.8401    -4.4656 H       
  69 H69           -5.9990     3.3876    -3.6137 H       
  70 H70           -5.6779     3.3731    -5.3644 H       
@<TRIPOS>BOND
   1    1    2 1
   2    1    6 1
   3    1   30 1
   4    1   31 1
   5    2    3 1
   6    2   25 1
   7    2   18 1
   8    3    4 1
   9    3   32 1
  10    3   33 1
  11    4    5 1
  12    4    7 1
  13    4   24 1
  14    5    6 1
  15    5   19 1
  16    5   10 1
  17    6   34 1
  18    6   35 1
  19    7    8 1
  20    7   36 1
  21    7   37 1
  22    8    9 1
  23    8   38 1
  24    8   39 1
  25    9   10 1
  26    9   11 1
  27    9   40 1
  28   10   14 1
  29   10   41 1
  30   11   12 1
  31   11   15 1
  32   11   42 1
  33   12   13 1
  34   12   20 1
  35   12   17 1
  36   13   14 1
  37   13   43 1
  38   13   44 1
  39   14   45 1
  40   14   46 1
  41   15   16 1
  42   15   47 1
  43   15   48 1
  44   16   17 1
  45   16   49 1
  46   16   50 1
  47   17   21 1
  48   17   51 1
  49   18   26 1
  50   18   52 1
  51   18   53 1
  52   19   54 1
  53   19   55 1
  54   19   56 1
  55   20   57 1
  56   20   58 1
  57   20   59 1
  58   21   22 1
  59   21   23 2
  60   22   60 1
  61   22   61 1
  62   22   62 1
  63   25   63 1
  64   26   27 1
  65   27   28 1
  66   27   64 1
  67   27   65 1
  68   28   29 1
  69   28   66 1
  70   28   67 1
  71   29   68 1
  72   29   69 1
  73   29   70 1

#	End of record

