#	Name: ASD08178261
#	Creating user name:	WinNT
#	Creation time:	15. 06. 2019 21:18

#	Modifying user name:	WinNT
#	Modification time:	15. 06. 2019 21:18

#	Program:	/corina/corina34_cracker 3.40 0067  02.08.2006

@<TRIPOS>MOLECULE
ASD08178261
  68   71    0    0    0
SMALL
NO_CHARGES


@<TRIPOS>ATOM
   1 N1            -0.0168     1.3902     0.0097 N.am    
   2 C2            -0.2164     0.0102     0.0229 C.ar    
   3 C3             0.8697    -0.8551    -0.0928 C.ar    
   4 N4            -1.4386    -0.4841     0.1510 N.ar    
   5 N5            -1.6646    -1.7474     0.1682 N.ar    
   6 C6            -0.6976    -2.6372     0.0598 C.ar    
   7 C7             0.6183    -2.2186    -0.0737 C.ar    
   8 C8            -1.0211    -4.1088     0.0868 C.3     
   9 C9            -1.8077    -4.4348     1.3579 C.3     
  10 C10           -2.1362    -5.9289     1.3854 C.3     
  11 C11           -2.9228    -6.2549     2.6565 C.3     
  12 C12           -3.2463    -7.7265     2.6835 C.2     
  13 N13           -2.5147    -8.6601     3.2038 N.2     
  14 N14           -2.9617    -9.8382     3.1245 N.2     
  15 C15           -4.1055   -10.0107     2.5337 C.2     
  16 S16           -4.6930    -8.4861     2.0189 S.3     
  17 N17           -4.7492   -11.2303     2.3539 N.am    
  18 C18           -4.1839   -12.3647     2.8123 C.2     
  19 C19           -4.8814   -13.6863     2.6175 C.3     
  20 O20           -3.1139   -12.3219     3.3817 O.2     
  21 C21           -4.0461   -14.7883     3.2167 C.ar    
  22 C22           -4.2258   -15.1510     4.5382 C.ar    
  23 C23           -3.4594   -16.1619     5.0879 C.ar    
  24 C24           -2.5140   -16.8102     4.3157 C.ar    
  25 C25           -2.3349   -16.4480     2.9936 C.ar    
  26 C26           -3.1040   -15.4403     2.4428 C.ar    
  27 C27           -1.3037   -17.1545     2.1518 C.3     
  28 N28           -1.9181   -18.3117     1.4963 N.am    
  29 C29           -1.1805   -19.0985     0.6879 C.2     
  30 C30           -1.8004   -20.2663     0.0264 C.ar    
  31 O31           -0.0056   -18.8479     0.5027 O.2     
  32 C32           -3.1507   -20.5536     0.2324 C.ar    
  33 C33           -1.0755     2.2243     0.0168 C.2     
  34 O34           -2.2002     1.7772    -0.0599 O.2     
  35 C35           -0.8617     3.7124     0.1201 C.3     
  36 C36           -1.0394   -21.0831    -0.8114 C.ar    
  37 C37           -1.6240   -22.1713    -1.4256 C.ar    
  38 C38           -2.9617   -22.4536    -1.2130 C.ar    
  39 C39           -3.7230   -21.6449    -0.3879 C.ar    
  40 H40            0.8839     1.7500    -0.0006 H       
  41 H41            1.8758    -0.4757    -0.1945 H       
  42 H42            1.4227    -2.9336    -0.1640 H       
  43 H43           -1.6201    -4.3652    -0.7870 H       
  44 H44           -0.0956    -4.6846     0.0745 H       
  45 H45           -1.2087    -4.1784     2.2317 H       
  46 H46           -2.7332    -3.8591     1.3702 H       
  47 H47           -2.7352    -6.1853     0.5116 H       
  48 H48           -1.2107    -6.5046     1.3731 H       
  49 H49           -2.3238    -5.9985     3.5303 H       
  50 H50           -3.8483    -5.6791     2.6688 H       
  51 H51           -5.6050   -11.2646     1.8985 H       
  52 H52           -5.8541   -13.6596     3.1087 H       
  53 H53           -5.0173   -13.8718     1.5520 H       
  54 H54           -4.9645   -14.6444     5.1415 H       
  55 H55           -3.5993   -16.4448     6.1208 H       
  56 H56           -1.9149   -17.5994     4.7454 H       
  57 H57           -2.9642   -15.1574     1.4100 H       
  58 H58           -0.9208   -16.4694     1.3954 H       
  59 H59           -0.4838   -17.4896     2.7870 H       
  60 H60           -2.8556   -18.5117     1.6441 H       
  61 H61           -3.7460   -19.9231     0.8762 H       
  62 H62            0.2062     3.9228     0.1794 H       
  63 H63           -1.2800     4.2016    -0.7596 H       
  64 H64           -1.3565     4.0894     1.0152 H       
  65 H65            0.0047   -20.8635    -0.9787 H       
  66 H66           -1.0363   -22.8041    -2.0741 H       
  67 H67           -3.4147   -23.3063    -1.6968 H       
  68 H68           -4.7667   -21.8707    -0.2260 H       
@<TRIPOS>BOND
   1    1    2 1
   2    1   33 am
   3    1   40 1
   4    2    3 ar
   5    2    4 ar
   6    3    7 ar
   7    3   41 1
   8    4    5 ar
   9    5    6 ar
  10    6    7 ar
  11    6    8 1
  12    7   42 1
  13    8    9 1
  14    8   43 1
  15    8   44 1
  16    9   10 1
  17    9   45 1
  18    9   46 1
  19   10   11 1
  20   10   47 1
  21   10   48 1
  22   11   12 1
  23   11   49 1
  24   11   50 1
  25   12   13 2
  26   12   16 1
  27   13   14 1
  28   14   15 2
  29   15   16 1
  30   15   17 1
  31   17   18 am
  32   17   51 1
  33   18   19 1
  34   18   20 2
  35   19   21 1
  36   19   52 1
  37   19   53 1
  38   21   22 ar
  39   21   26 ar
  40   22   23 ar
  41   22   54 1
  42   23   24 ar
  43   23   55 1
  44   24   25 ar
  45   24   56 1
  46   25   26 ar
  47   25   27 1
  48   26   57 1
  49   27   28 1
  50   27   58 1
  51   27   59 1
  52   28   29 am
  53   28   60 1
  54   29   30 1
  55   29   31 2
  56   30   36 ar
  57   30   32 ar
  58   32   39 ar
  59   32   61 1
  60   33   34 2
  61   33   35 1
  62   35   62 1
  63   35   63 1
  64   35   64 1
  65   36   37 ar
  66   36   65 1
  67   37   38 ar
  68   37   66 1
  69   38   39 ar
  70   38   67 1
  71   39   68 1

#	End of record

