#	Name: ASD02440074
#	Creating user name:	WinNT
#	Creation time:	15. 06. 2019 20:21

#	Modifying user name:	WinNT
#	Modification time:	15. 06. 2019 20:21

#	Program:	/corina/corina34_cracker 3.40 0067  02.08.2006

@<TRIPOS>MOLECULE
ASD02440074
  66   70    0    0    0
SMALL
NO_CHARGES


@<TRIPOS>ATOM
   1 N1             0.0402     1.4801     0.6431 N.am    
   2 C2             0.0443     0.1211     0.8029 C.2     
   3 S3             1.7155    -0.4159     0.5604 S.3     
   4 C4             2.3501     1.2118     0.2519 C.2     
   5 C5             1.1793     2.0906     0.3624 C.2     
   6 N6            -0.9901    -0.6382     1.0824 N.2     
   7 C7            -1.2034     2.2435     0.7744 C.3     
   8 C8            -1.3823     2.6694     2.2088 C.ar    
   9 O9             1.2517     3.2953     0.2064 O.2     
  10 C10            3.6302     1.5651    -0.0234 C.2     
  11 C11            4.7052     0.5669     0.0725 C.ar    
  12 C12            4.5317    -0.5798     0.8554 C.ar    
  13 C13            5.5430    -1.5136     0.9417 C.ar    
  14 C14            6.7291    -1.3210     0.2569 C.ar    
  15 C15            6.9119    -0.1861    -0.5232 C.ar    
  16 C16            5.9038     0.7562    -0.6231 C.ar    
  17 C17           -2.2259     2.2304     4.4066 C.ar    
  18 C18           -2.0582     1.8465     3.0923 C.ar    
  19 C19           -0.8649     3.8789     2.6377 C.ar    
  20 C20           -1.0251     4.2749     3.9494 C.ar    
  21 C21           -1.7110     3.4520     4.8449 C.ar    
  22 C22           -1.8872     3.8700     6.2508 C.2     
  23 O23           -2.4812     3.1503     7.0285 O.2     
  24 O24           -1.3892     5.0492     6.6704 O.3     
  25 O25            8.0803    -0.0039    -1.1931 O.3     
  26 C26            9.0757    -1.0192    -1.0495 C.3     
  27 C27           10.2921    -0.6480    -1.8578 C.ar    
  28 C28           11.3025     0.0997    -1.2825 C.ar    
  29 C29           12.4183     0.4403    -2.0240 C.ar    
  30 C30           12.5240     0.0328    -3.3406 C.ar    
  31 C31           11.5141    -0.7157    -3.9157 C.ar    
  32 C32           10.4002    -1.0599    -3.1729 C.ar    
  33 C33           -0.8302    -1.9922     1.2131 C.ar    
  34 C34           -1.4299    -2.6687     2.2774 C.ar    
  35 C35           -1.2667    -4.0322     2.4048 C.ar    
  36 C36           -0.5073    -4.7320     1.4773 C.ar    
  37 C37            0.0906    -4.0638     0.4178 C.ar    
  38 C38           -0.0719    -2.7013     0.2792 C.ar    
  39 O39           -0.3483    -6.0762     1.6072 O.3     
  40 C40            0.4455    -6.7343     0.6178 C.3     
  41 H41           -1.1570     3.1260     0.1364 H       
  42 H42           -2.0455     1.6208     0.4725 H       
  43 H43            3.8599     2.5799    -0.3130 H       
  44 H44            3.6069    -0.7334     1.3918 H       
  45 H45            5.4084    -2.3982     1.5464 H       
  46 H46            7.5169    -2.0561     0.3293 H       
  47 H47            6.0450     1.6386    -1.2295 H       
  48 H48           -2.7543     1.5875     5.0950 H       
  49 H49           -2.4556     0.9017     2.7521 H       
  50 H50           -0.3343     4.5142     1.9441 H       
  51 H51           -0.6205     5.2191     4.2829 H       
  52 H52           -1.5295     5.2795     7.5991 H       
  53 H53            9.3517    -1.1113     0.0010 H       
  54 H54            8.6790    -1.9699    -1.4057 H       
  55 H55           11.2199     0.4181    -0.2538 H       
  56 H56           13.2074     1.0251    -1.5747 H       
  57 H57           13.3955     0.2994    -3.9202 H       
  58 H58           11.5965    -1.0338    -4.9445 H       
  59 H59            9.6129    -1.6478    -3.6211 H       
  60 H60           -2.0204    -2.1249     3.0000 H       
  61 H61           -1.7301    -4.5563     3.2276 H       
  62 H62            0.6809    -4.6123    -0.3014 H       
  63 H63            0.3934    -2.1822    -0.5457 H       
  64 H64           -0.0023    -6.5860    -0.3648 H       
  65 H65            1.4529    -6.3182     0.6246 H       
  66 H66            0.4913    -7.8006     0.8391 H       
@<TRIPOS>BOND
   1    1    2 1
   2    1    5 am
   3    1    7 1
   4    2    3 1
   5    2    6 2
   6    3    4 1
   7    4    5 1
   8    4   10 2
   9    5    9 2
  10    6   33 1
  11    7    8 1
  12    7   41 1
  13    7   42 1
  14    8   19 ar
  15    8   18 ar
  16   10   11 1
  17   10   43 1
  18   11   12 ar
  19   11   16 ar
  20   12   13 ar
  21   12   44 1
  22   13   14 ar
  23   13   45 1
  24   14   15 ar
  25   14   46 1
  26   15   16 ar
  27   15   25 1
  28   16   47 1
  29   17   18 ar
  30   17   21 ar
  31   17   48 1
  32   18   49 1
  33   19   20 ar
  34   19   50 1
  35   20   21 ar
  36   20   51 1
  37   21   22 1
  38   22   23 2
  39   22   24 1
  40   24   52 1
  41   25   26 1
  42   26   27 1
  43   26   53 1
  44   26   54 1
  45   27   28 ar
  46   27   32 ar
  47   28   29 ar
  48   28   55 1
  49   29   30 ar
  50   29   56 1
  51   30   31 ar
  52   30   57 1
  53   31   32 ar
  54   31   58 1
  55   32   59 1
  56   33   34 ar
  57   33   38 ar
  58   34   35 ar
  59   34   60 1
  60   35   36 ar
  61   35   61 1
  62   36   37 ar
  63   36   39 1
  64   37   38 ar
  65   37   62 1
  66   38   63 1
  67   39   40 1
  68   40   64 1
  69   40   65 1
  70   40   66 1

#	End of record

