#	Name: ASD05250025
#	Creating user name:	WinNT
#	Creation time:	15. 06. 2019 20:58

#	Modifying user name:	WinNT
#	Modification time:	15. 06. 2019 20:58

#	Program:	/corina/corina34_cracker 3.40 0067  02.08.2006

@<TRIPOS>MOLECULE
ASD05250025
  33   34    0    0    0
SMALL
NO_CHARGES


@<TRIPOS>ATOM
   1 C1            -0.1592     1.7090     0.0510 C.ar    
   2 C2            -0.2156     0.3309     0.1484 C.ar    
   3 C3             0.9501    -0.4114     0.1901 C.ar    
   4 C4             2.1794     0.2251     0.1347 C.ar    
   5 C5             2.2371     1.6138     0.0366 C.ar    
   6 C6             1.0632     2.3518    -0.0052 C.ar    
   7 N7             3.4759     2.2624    -0.0193 N.am    
   8 S8             3.6743     3.7333     0.7152 S.o2    
   9 C9             3.2837     3.4245     2.4596 C.3     
  10 O10            5.0570     4.0203     0.5571 O.2     
  11 O11            2.6821     4.5586     0.1206 O.2     
  12 O12            3.3268    -0.5036     0.1765 O.3     
  13 C13            3.2237    -1.8458     0.3611 C.ar    
  14 C14            2.8463    -2.6654    -0.6931 C.ar    
  15 C15            2.7428    -4.0297    -0.5029 C.ar    
  16 C16            3.0147    -4.5787     0.7367 C.ar    
  17 C17            3.3904    -3.7642     1.7890 C.ar    
  18 C18            3.5011    -2.4000     1.6027 C.ar    
  19 N19           -1.5278    -0.3515     0.2086 N.pl3   
  20 O20           -2.5557     0.3008     0.1724 O.2     
  21 O21           -1.5795    -1.5654     0.2944 O.2     
  22 H22           -1.0725     2.2843     0.0142 H       
  23 H23            0.9024    -1.4877     0.2661 H       
  24 H24            1.1043     3.4284    -0.0813 H       
  25 H25            4.2184     1.8503    -0.4882 H       
  26 H26            3.9678     2.6752     2.8579 H       
  27 H27            3.3897     4.3504     3.0250 H       
  28 H28            2.2591     3.0625     2.5439 H       
  29 H29            2.6335    -2.2370    -1.6614 H       
  30 H30            2.4488    -4.6680    -1.3229 H       
  31 H31            2.9331    -5.6456     0.8833 H       
  32 H32            3.6016    -4.1955     2.7564 H       
  33 H33            3.7950    -1.7643     2.4248 H       
@<TRIPOS>BOND
   1    1    2 ar
   2    1    6 ar
   3    1   22 1
   4    2    3 ar
   5    2   19 1
   6    3    4 ar
   7    3   23 1
   8    4    5 ar
   9    4   12 1
  10    5    6 ar
  11    5    7 1
  12    6   24 1
  13    7    8 am
  14    7   25 1
  15    8    9 1
  16    8   10 2
  17    8   11 2
  18    9   26 1
  19    9   27 1
  20    9   28 1
  21   12   13 1
  22   13   14 ar
  23   13   18 ar
  24   14   15 ar
  25   14   29 1
  26   15   16 ar
  27   15   30 1
  28   16   17 ar
  29   16   31 1
  30   17   18 ar
  31   17   32 1
  32   18   33 1
  33   19   20 2
  34   19   21 2

#	End of record

