#	Name: ASD01810173
#	Creating user name:	WinNT
#	Creation time:	15. 06. 2019 19:23

#	Modifying user name:	WinNT
#	Modification time:	15. 06. 2019 19:23

#	Program:	/corina/corina34_cracker 3.40 0067  02.08.2006

@<TRIPOS>MOLECULE
ASD01810173
  37   39    0    0    0
SMALL
NO_CHARGES


@<TRIPOS>ATOM
   1 C1             0.1028     1.4769     0.3841 C.ar    
   2 C2             0.0841     0.0897     0.3761 C.ar    
   3 C3             1.2529    -0.6297     0.2362 C.ar    
   4 C4             2.4693     0.0388     0.1010 C.ar    
   5 C5             2.4835     1.4435     0.1096 C.ar    
   6 C6             1.2934     2.1569     0.2520 C.ar    
   7 N7             3.6450    -0.6678    -0.0386 N.pl3   
   8 C8             4.8374    -0.0733    -0.1702 C.2     
   9 C9             4.9780     1.3000    -0.1758 C.2     
  10 C10            3.7766     2.1382    -0.0343 C.2     
  11 O11            3.8474     3.3547    -0.0334 O.2     
  12 C12            6.3050     1.9146    -0.3215 C.2     
  13 O13            6.4294     3.2569    -0.3255 O.3     
  14 O14            7.2905     1.2126    -0.4385 O.2     
  15 C15            3.5871    -2.1316    -0.0427 C.3     
  16 C16            3.4445    -2.6248    -1.4595 C.ar    
  17 C17            4.5641    -2.7668    -2.2579 C.ar    
  18 C18            4.4333    -3.2191    -3.5576 C.ar    
  19 C19            3.1831    -3.5299    -4.0588 C.ar    
  20 C20            2.0636    -3.3887    -3.2601 C.ar    
  21 C21            2.1949    -2.9405    -1.9591 C.ar    
  22 F22            1.2191    -1.9802     0.2306 F       
  23 C23            3.0404    -4.0220    -5.4760 C.3     
  24 F24            3.1379    -5.4175    -5.4971 F       
  25 F25            1.7950    -3.6339    -5.9813 F       
  26 F26            4.0560    -3.4716    -6.2652 F       
  27 H27           -0.8210     2.0263     0.4900 H       
  28 H28           -0.8554    -0.4325     0.4808 H       
  29 H29            1.3053     3.2368     0.2582 H       
  30 H30            5.7187    -0.6887    -0.2751 H       
  31 H31            7.3223     3.6148    -0.4240 H       
  32 H32            4.5030    -2.5327     0.3912 H       
  33 H33            2.7311    -2.4630     0.5452 H       
  34 H34            5.5409    -2.5240    -1.8663 H       
  35 H35            5.3079    -3.3294    -4.1815 H       
  36 H36            1.0868    -3.6312    -3.6518 H       
  37 H37            1.3203    -2.8302    -1.3351 H       
@<TRIPOS>BOND
   1    1    2 ar
   2    1    6 ar
   3    1   27 1
   4    2    3 ar
   5    2   28 1
   6    3    4 ar
   7    3   22 1
   8    4    5 ar
   9    4    7 1
  10    5    6 ar
  11    5   10 1
  12    6   29 1
  13    7    8 1
  14    7   15 1
  15    8    9 2
  16    8   30 1
  17    9   10 1
  18    9   12 1
  19   10   11 2
  20   12   13 1
  21   12   14 2
  22   13   31 1
  23   15   16 1
  24   15   32 1
  25   15   33 1
  26   16   17 ar
  27   16   21 ar
  28   17   18 ar
  29   17   34 1
  30   18   19 ar
  31   18   35 1
  32   19   20 ar
  33   19   23 1
  34   20   21 ar
  35   20   36 1
  36   21   37 1
  37   23   24 1
  38   23   25 1
  39   23   26 1

#	End of record

