#	Name: ASD08178105
#	Creating user name:	WinNT
#	Creation time:	15. 06. 2019 21:18

#	Modifying user name:	WinNT
#	Modification time:	15. 06. 2019 21:18

#	Program:	/corina/corina34_cracker 3.40 0067  02.08.2006

@<TRIPOS>MOLECULE
ASD08178105
  58   61    0    0    0
SMALL
NO_CHARGES


@<TRIPOS>ATOM
   1 C1            -0.0184     1.5028     0.0103 C.2     
   2 C2             0.0021    -0.0041     0.0020 C.3     
   3 C3             0.0221    -0.5218     1.4416 C.3     
   4 C4             0.0429    -2.0516     1.4332 C.3     
   5 C5             0.0630    -2.5693     2.8728 C.3     
   6 C6             0.0834    -4.0761     2.8645 C.2     
   7 N7             1.1396    -4.8258     2.8513 N.2     
   8 N8             0.9467    -6.0734     2.8463 N.2     
   9 C9            -0.2824    -6.4936     2.8547 C.2     
  10 S10           -1.3267    -5.1359     2.8788 S.3     
  11 N11           -0.6838    -7.8252     2.8506 N.am    
  12 N12            1.0171     2.2809     0.0046 N.2     
  13 C13            0.2391    -8.8073     2.8374 C.2     
  14 O14            1.4197    -8.5298     2.8290 O.2     
  15 C15           -0.1960   -10.2501     2.8329 C.3     
  16 C16            0.8968   -11.1061     3.4194 C.ar    
  17 N17            0.7904     3.5228     0.0134 N.2     
  18 C18           -0.4495     3.9094     0.0274 C.2     
  19 S19           -1.4568     2.5237     0.0218 S.3     
  20 C20            2.8751   -12.4249     3.1365 C.ar    
  21 C21            0.9228   -11.3587     4.7783 C.ar    
  22 C22            1.9253   -12.1439     5.3163 C.ar    
  23 C23            2.9015   -12.6768     4.4954 C.ar    
  24 C24            1.8701   -11.6433     2.5978 C.ar    
  25 N25           -0.8870     5.2295     0.0390 N.am    
  26 C26            0.0089     6.2364     0.0358 C.2     
  27 O27            1.1967     5.9912     0.0228 O.2     
  28 C28           -0.4651     7.6668     0.0485 C.3     
  29 C29            0.5933     8.5521    -0.5575 C.ar    
  30 F30           -1.6448     7.7738    -0.6959 F       
  31 F31           -0.7079     8.0660     1.3672 F       
  32 C32            0.5878     8.8050    -1.9165 C.ar    
  33 C33            1.5586     9.6170    -2.4724 C.ar    
  34 C34            2.5347    10.1765    -1.6692 C.ar    
  35 C35            2.5397     9.9243    -0.3100 C.ar    
  36 C36            1.5663     9.1158     0.2465 C.ar    
  37 F37           -1.3587   -10.3889     3.5985 F       
  38 F38           -0.4517   -10.6560     1.5187 F       
  39 H39           -0.8875    -0.3767    -0.5057 H       
  40 H40            0.8922    -0.3525    -0.5218 H       
  41 H41            0.9118    -0.1491     1.9494 H       
  42 H42           -0.8680    -0.1733     1.9655 H       
  43 H43           -0.8467    -2.4242     0.9255 H       
  44 H44            0.9330    -2.4000     0.9094 H       
  45 H45            0.9526    -2.1967     3.3806 H       
  46 H46           -0.8271    -2.2209     3.3967 H       
  47 H47           -1.6281    -8.0470     2.8573 H       
  48 H48            3.6355   -12.8446     2.4946 H       
  49 H49            0.1601   -10.9424     5.4196 H       
  50 H50            1.9459   -12.3407     6.3780 H       
  51 H51            3.6847   -13.2902     4.9158 H       
  52 H52            1.8495   -11.4465     1.5361 H       
  53 H53           -1.8369     5.4256     0.0495 H       
  54 H54           -0.1748     8.3679    -2.5440 H       
  55 H55            1.5547     9.8141    -3.5342 H       
  56 H56            3.2936    10.8104    -2.1036 H       
  57 H57            3.3025    10.3611     0.3174 H       
  58 H58            1.5702     8.9188     1.3084 H       
@<TRIPOS>BOND
   1    1    2 1
   2    1   12 2
   3    1   19 1
   4    2    3 1
   5    2   39 1
   6    2   40 1
   7    3    4 1
   8    3   41 1
   9    3   42 1
  10    4    5 1
  11    4   43 1
  12    4   44 1
  13    5    6 1
  14    5   45 1
  15    5   46 1
  16    6    7 2
  17    6   10 1
  18    7    8 1
  19    8    9 2
  20    9   10 1
  21    9   11 1
  22   11   13 am
  23   11   47 1
  24   12   17 1
  25   13   14 2
  26   13   15 1
  27   15   16 1
  28   15   37 1
  29   15   38 1
  30   16   21 ar
  31   16   24 ar
  32   17   18 2
  33   18   19 1
  34   18   25 1
  35   20   24 ar
  36   20   23 ar
  37   20   48 1
  38   21   22 ar
  39   21   49 1
  40   22   23 ar
  41   22   50 1
  42   23   51 1
  43   24   52 1
  44   25   26 am
  45   25   53 1
  46   26   27 2
  47   26   28 1
  48   28   29 1
  49   28   30 1
  50   28   31 1
  51   29   32 ar
  52   29   36 ar
  53   32   33 ar
  54   32   54 1
  55   33   34 ar
  56   33   55 1
  57   34   35 ar
  58   34   56 1
  59   35   36 ar
  60   35   57 1
  61   36   58 1

#	End of record

