#	Name: ASD01917685
#	Creating user name:	WinNT
#	Creation time:	15. 06. 2019 20:09

#	Modifying user name:	WinNT
#	Modification time:	15. 06. 2019 20:09

#	Program:	/corina/corina34_cracker 3.40 0067  02.08.2006

@<TRIPOS>MOLECULE
ASD01917685
  39   42    0    0    0
SMALL
NO_CHARGES


@<TRIPOS>ATOM
   1 C1            -0.0139     1.4936     0.0247 C.3     
   2 C2             0.0205    -0.0168     0.0084 C.2     
   3 C3             2.4652    -0.1848    -0.4925 C.3     
   4 C4             2.3200     1.2814    -0.9140 C.3     
   5 N5             1.3859     1.9573    -0.0009 N.am    
   6 C6            -1.0011    -0.8652     0.2171 C.2     
   7 C7            -0.5000    -2.1782     0.0958 C.2     
   8 N8             0.7874    -2.0985    -0.1757 N.2     
   9 N9             1.1365    -0.7462    -0.2307 N.pl3   
  10 C10            1.7964     2.9700     0.7881 C.2     
  11 O11            2.9744     3.2667     0.8326 O.2     
  12 C12            0.8145     3.7196     1.5993 C.ar    
  13 C13            1.1705     4.2040     2.8594 C.ar    
  14 C14           -0.4709     3.9512     1.1060 C.ar    
  15 C15           -1.3827     4.6516     1.8673 C.ar    
  16 C16           -1.0254     5.1252     3.1189 C.ar    
  17 C17            0.2501     4.9031     3.6114 C.ar    
  18 C18           -1.2837    -3.4285     0.2475 C.ar    
  19 C19           -0.6525    -4.6619     0.0996 C.ar    
  20 C20           -1.3965    -5.8196     0.2444 C.ar    
  21 C21           -2.7495    -5.7060     0.5330 C.ar    
  22 C22           -3.3110    -4.4500     0.6664 C.ar    
  23 N23           -2.5785    -3.3632     0.5284 N.ar    
  24 Cl24          -2.1784     6.0068     4.0713 Cl      
  25 H25           -0.5441     1.8629    -0.8531 H       
  26 H26           -0.5054     1.8445     0.9321 H       
  27 H27            2.9469    -0.7475    -1.2922 H       
  28 H28            3.0707    -0.2453     0.4118 H       
  29 H29            3.2926     1.7714    -0.8681 H       
  30 H30            1.9341     1.3310    -1.9322 H       
  31 H31           -2.0221    -0.5909     0.4380 H       
  32 H32            2.1645     4.0311     3.2445 H       
  33 H33           -0.7505     3.5827     0.1301 H       
  34 H34           -2.3772     4.8317     1.4867 H       
  35 H35            0.5243     5.2783     4.5863 H       
  36 H36            0.4026    -4.7136    -0.1254 H       
  37 H37           -0.9350    -6.7899     0.1351 H       
  38 H38           -3.3577    -6.5905     0.6517 H       
  39 H39           -4.3634    -4.3581     0.8909 H       
@<TRIPOS>BOND
   1    1    2 1
   2    1    5 1
   3    1   25 1
   4    1   26 1
   5    2    6 2
   6    2    9 1
   7    3    4 1
   8    3    9 1
   9    3   27 1
  10    3   28 1
  11    4    5 1
  12    4   29 1
  13    4   30 1
  14    5   10 am
  15    6    7 1
  16    6   31 1
  17    7    8 2
  18    7   18 1
  19    8    9 1
  20   10   11 2
  21   10   12 1
  22   12   14 ar
  23   12   13 ar
  24   13   17 ar
  25   13   32 1
  26   14   15 ar
  27   14   33 1
  28   15   16 ar
  29   15   34 1
  30   16   17 ar
  31   16   24 1
  32   17   35 1
  33   18   19 ar
  34   18   23 ar
  35   19   20 ar
  36   19   36 1
  37   20   21 ar
  38   20   37 1
  39   21   22 ar
  40   21   38 1
  41   22   23 ar
  42   22   39 1

#	End of record

