#	Name: ASD01884724
#	Creating user name:	WinNT
#	Creation time:	15. 06. 2019 19:48

#	Modifying user name:	WinNT
#	Modification time:	15. 06. 2019 19:48

#	Program:	/corina/corina34_cracker 3.40 0067  02.08.2006

@<TRIPOS>MOLECULE
ASD01884724
  42   44    0    0    0
SMALL
NO_CHARGES


@<TRIPOS>ATOM
   1 C1            -0.0170     1.4018     0.0097 C.2     
   2 C2             0.0021    -0.0041     0.0020 C.2     
   3 C3             1.1598     2.0872     0.0022 C.2     
   4 C4             2.3745     1.3681    -0.0133 C.2     
   5 C5             2.3524     0.0035    -0.0204 C.2     
   6 N6             1.1735    -0.6669    -0.0123 N.am    
   7 C7             3.6695     2.0927    -0.0222 C.ar    
   8 C8             1.1652     3.5941     0.0097 C.3     
   9 H9            -0.9569     1.9337     0.0171 H       
  10 O10           -1.0480    -0.6261     0.0087 O.2     
  11 C11            1.1749    -2.1319    -0.0197 C.3     
  12 C12            1.1893    -2.6414     1.3985 C.ar    
  13 C13            4.5170     1.9943    -1.1242 C.ar    
  14 C14            5.7201     2.6688    -1.1296 C.ar    
  15 C15            6.0870     3.4452    -0.0389 C.ar    
  16 C16            5.2450     3.5451     1.0601 C.ar    
  17 C17            4.0380     2.8774     1.0689 C.ar    
  18 C18            0.0156    -2.6807     2.1318 C.ar    
  19 C19            0.0296    -3.1494     3.4346 C.ar    
  20 C20            1.2159    -3.5777     4.0018 C.ar    
  21 C21            2.3881    -3.5377     3.2674 C.ar    
  22 C22            2.3732    -3.0748     1.9652 C.ar    
  23 F23           -1.1426    -2.2616     1.5767 F       
  24 Cl24           1.2347    -4.1650     5.6353 Cl      
  25 O25            7.2732     4.1083    -0.0469 O.3     
  26 C26            7.5879     4.8889     1.1080 C.3     
  27 H27            3.2815    -0.5471    -0.0326 H       
  28 H28            0.1389     3.9611     0.0212 H       
  29 H29            1.6887     3.9511     0.8967 H       
  30 H30            1.6720     3.9601    -0.8832 H       
  31 H31            0.2804    -2.4936    -0.5267 H       
  32 H32            2.0602    -2.4917    -0.5440 H       
  33 H33            4.2322     1.3901    -1.9729 H       
  34 H34            6.3775     2.5927    -1.9831 H       
  35 H35            5.5331     4.1499     1.9072 H       
  36 H36            3.3831     2.9559     1.9241 H       
  37 H37           -0.8853    -3.1801     4.0076 H       
  38 H38            3.3144    -3.8722     3.7106 H       
  39 H39            3.2885    -3.0439     1.3929 H       
  40 H40            6.8251     5.6548     1.2477 H       
  41 H41            7.6194     4.2430     1.9855 H       
  42 H42            8.5593     5.3641     0.9716 H       
@<TRIPOS>BOND
   1    1    2 1
   2    1    3 2
   3    1    9 1
   4    2   10 2
   5    2    6 am
   6    3    4 1
   7    3    8 1
   8    4    5 2
   9    4    7 1
  10    5    6 1
  11    5   27 1
  12    6   11 1
  13    7   13 ar
  14    7   17 ar
  15    8   28 1
  16    8   29 1
  17    8   30 1
  18   11   12 1
  19   11   31 1
  20   11   32 1
  21   12   18 ar
  22   12   22 ar
  23   13   14 ar
  24   13   33 1
  25   14   15 ar
  26   14   34 1
  27   15   16 ar
  28   15   25 1
  29   16   17 ar
  30   16   35 1
  31   17   36 1
  32   18   19 ar
  33   18   23 1
  34   19   20 ar
  35   19   37 1
  36   20   21 ar
  37   20   24 1
  38   21   22 ar
  39   21   38 1
  40   22   39 1
  41   25   26 1
  42   26   40 1
  43   26   41 1
  44   26   42 1

#	End of record

