#	Name: ASD01880409
#	Creating user name:	WinNT
#	Creation time:	15. 06. 2019 19:40

#	Modifying user name:	WinNT
#	Modification time:	15. 06. 2019 19:40

#	Program:	/corina/corina34_cracker 3.40 0067  02.08.2006

@<TRIPOS>MOLECULE
ASD01880409
  41   42    0    0    0
SMALL
NO_CHARGES


@<TRIPOS>ATOM
   1 C1            -0.0158     1.3166     0.0093 C.ar    
   2 N2             0.0021    -0.0041     0.0020 N.ar    
   3 C3             1.1445    -0.6746    -0.0125 C.ar    
   4 C4             2.3648     0.0485    -0.0202 C.ar    
   5 C5             2.2891     1.4440    -0.0120 C.ar    
   6 N6             1.0857     2.0309     0.0026 N.ar    
   7 C7             3.7373    -0.4211    -0.0353 C.2     
   8 C8             4.6485     0.5323    -0.0385 C.2     
   9 S9             3.9102     2.1228    -0.0232 S.3     
  10 C10            6.1352     0.2862    -0.0535 C.3     
  11 N11            1.1474    -2.0578    -0.0195 N.pl3   
  12 C12           -0.1198    -2.7930    -0.0109 C.3     
  13 C13            6.6251     0.2107    -1.5010 C.3     
  14 C14            0.1629    -4.2966    -0.0212 C.3     
  15 C15           -1.3204    -5.8608     1.1253 C.2     
  16 C16           -1.1341    -5.0525     0.1114 C.2     
  17 C17            0.8333    -4.6728    -1.3174 C.2     
  18 C18            2.0257    -5.2151    -1.3048 C.2     
  19 C19            8.1499     0.0857    -1.5174 C.3     
  20 C20            6.0060    -1.0093    -2.1859 C.3     
  21 H21           -0.9682     1.8258     0.0165 H       
  22 H22            3.9931    -1.4704    -0.0429 H       
  23 H23            6.6437     1.1022     0.4601 H       
  24 H24            6.3530    -0.6539     0.4533 H       
  25 H25            1.9884    -2.5410    -0.0301 H       
  26 H26           -0.6832    -2.5354     0.8859 H       
  27 H27           -0.7005    -2.5264    -0.8939 H       
  28 H28            6.3289     1.1150    -2.0325 H       
  29 H29            0.8175    -4.5490     0.8130 H       
  30 H30           -0.5445    -5.9856     1.8662 H       
  31 H31           -2.2498    -6.4025     1.2204 H       
  32 H32           -1.9099    -4.9278    -0.6294 H       
  33 H33            0.3307    -4.4954    -2.2567 H       
  34 H34            2.5284    -5.3926    -0.3655 H       
  35 H35            2.5062    -5.4847    -2.2337 H       
  36 H36            8.4461    -0.8186    -0.9859 H       
  37 H37            8.4989     0.0319    -2.5487 H       
  38 H38            8.5910     0.9549    -1.0295 H       
  39 H39            4.9197    -0.9203    -2.1741 H       
  40 H40            6.3550    -1.0632    -3.2171 H       
  41 H41            6.3022    -1.9137    -1.6544 H       
@<TRIPOS>BOND
   1    1    2 ar
   2    1    6 ar
   3    1   21 1
   4    2    3 ar
   5    3    4 ar
   6    3   11 1
   7    4    5 ar
   8    4    7 1
   9    5    6 ar
  10    5    9 1
  11    7    8 2
  12    7   22 1
  13    8    9 1
  14    8   10 1
  15   10   13 1
  16   10   23 1
  17   10   24 1
  18   11   12 1
  19   11   25 1
  20   12   14 1
  21   12   26 1
  22   12   27 1
  23   13   19 1
  24   13   20 1
  25   13   28 1
  26   14   17 1
  27   14   16 1
  28   14   29 1
  29   15   16 2
  30   15   30 1
  31   15   31 1
  32   16   32 1
  33   17   18 2
  34   17   33 1
  35   18   34 1
  36   18   35 1
  37   19   36 1
  38   19   37 1
  39   19   38 1
  40   20   39 1
  41   20   40 1
  42   20   41 1

#	End of record

