#	Name: ASD03540328
#	Creating user name:	WinNT
#	Creation time:	15. 06. 2019 20:43

#	Modifying user name:	WinNT
#	Modification time:	15. 06. 2019 20:43

#	Program:	/corina/corina34_cracker 3.40 0067  02.08.2006

@<TRIPOS>MOLECULE
ASD03540328
  51   54    0    0    0
SMALL
NO_CHARGES


@<TRIPOS>ATOM
   1 C1            -0.0161     1.3365     0.0094 C.2     
   2 N2             0.0021    -0.0041     0.0020 N.am    
   3 C3             1.1931    -0.7075    -0.0132 C.2     
   4 C4             2.3928    -0.0051    -0.0209 C.2     
   5 C5             2.3194     1.4734    -0.0115 C.2     
   6 N6             1.1110     2.0661     0.0025 N.am    
   7 C7             3.5129    -0.8381    -0.0361 C.2     
   8 C8             3.2256    -2.1516    -0.0404 C.2     
   9 S9             1.4874    -2.3902    -0.0250 S.3     
  10 C10            4.2183    -3.2259    -0.0565 C.2     
  11 O11            5.4048    -2.9577    -0.0671 O.2     
  12 O12            3.8179    -4.5143    -0.0595 O.3     
  13 C13            1.0243     3.5285     0.0113 C.3     
  14 C14            1.0082     4.0223     1.4350 C.ar    
  15 C15            2.1967     4.3194     2.0760 C.ar    
  16 C16            2.1846     4.7721     3.3810 C.ar    
  17 C17            0.9786     4.9287     4.0485 C.ar    
  18 C18           -0.2126     4.6299     3.4032 C.ar    
  19 C19           -0.1955     4.1828     2.0962 C.ar    
  20 O20            0.9640     5.3735     5.3326 O.3     
  21 C21           -0.3139     5.5107     5.9572 C.3     
  22 F22           -0.9563     4.2682     5.9826 F       
  23 F23           -0.1457     5.9755     7.2660 F       
  24 F24           -1.0906     6.4227     5.2347 F       
  25 O25            3.3358     2.1426    -0.0175 O.2     
  26 O26           -1.0880     1.9101     0.0175 O.2     
  27 C27           -1.2652    -0.7390     0.0107 C.3     
  28 C28            4.8413    -5.5116    -0.0754 C.3     
  29 C29            4.2094    -6.8798    -0.0765 C.ar    
  30 C30            3.9074    -7.5007    -1.2740 C.ar    
  31 C31            3.3277    -8.7556    -1.2750 C.ar    
  32 C32            3.0505    -9.3898    -0.0785 C.ar    
  33 C33            3.3533    -8.7693     1.1191 C.ar    
  34 C34            3.9370    -7.5162     1.1200 C.ar    
  35 H35            4.5244    -0.4597    -0.0438 H       
  36 H36            1.8863     3.9467    -0.5086 H       
  37 H37            0.1095     3.8412    -0.4921 H       
  38 H38            3.1354     4.1970     1.5560 H       
  39 H39            3.1133     5.0037     3.8814 H       
  40 H40           -1.1528     4.7509     3.9207 H       
  41 H41           -1.1228     3.9546     1.5918 H       
  42 H42           -2.0950    -0.0322     0.0228 H       
  43 H43           -1.3307    -1.3609    -0.8820 H       
  44 H44           -1.3130    -1.3705     0.8978 H       
  45 H45            5.4510    -5.3923    -0.9710 H       
  46 H46            5.4691    -5.4021     0.8089 H       
  47 H47            4.1240    -7.0051    -2.2089 H       
  48 H48            3.0911    -9.2404    -2.2107 H       
  49 H49            2.5970   -10.3700    -0.0792 H       
  50 H50            3.1364    -9.2647     2.0539 H       
  51 H51            4.1770    -7.0330     2.0556 H       
@<TRIPOS>BOND
   1    1    2 am
   2    1    6 am
   3    1   26 2
   4    2    3 1
   5    2   27 1
   6    3    4 2
   7    3    9 1
   8    4    5 1
   9    4    7 1
  10    5    6 am
  11    5   25 2
  12    6   13 1
  13    7    8 2
  14    7   35 1
  15    8    9 1
  16    8   10 1
  17   10   11 2
  18   10   12 1
  19   12   28 1
  20   13   14 1
  21   13   36 1
  22   13   37 1
  23   14   15 ar
  24   14   19 ar
  25   15   16 ar
  26   15   38 1
  27   16   17 ar
  28   16   39 1
  29   17   18 ar
  30   17   20 1
  31   18   19 ar
  32   18   40 1
  33   19   41 1
  34   20   21 1
  35   21   22 1
  36   21   23 1
  37   21   24 1
  38   27   42 1
  39   27   43 1
  40   27   44 1
  41   28   29 1
  42   28   45 1
  43   28   46 1
  44   29   30 ar
  45   29   34 ar
  46   30   31 ar
  47   30   47 1
  48   31   32 ar
  49   31   48 1
  50   32   33 ar
  51   32   49 1
  52   33   34 ar
  53   33   50 1
  54   34   51 1

#	End of record

