#	Name: ASD01380020
#	Creating user name:	WinNT
#	Creation time:	15. 06. 2019 19:16

#	Modifying user name:	WinNT
#	Modification time:	15. 06. 2019 19:16

#	Program:	/corina/corina34_cracker 3.40 0067  02.08.2006

@<TRIPOS>MOLECULE
ASD01380020
  65   68    0    0    0
SMALL
NO_CHARGES


@<TRIPOS>ATOM
   1 C1             0.8867     1.6153    -0.9450 C.3     
   2 N2             0.7630     0.1639    -0.7892 N.pl3   
   3 C3             1.3081    -0.4639     0.3228 C.ar    
   4 C4             2.0842     0.2572     1.2214 C.ar    
   5 C5             2.6249    -0.3690     2.3258 C.ar    
   6 C6             2.3999    -1.7183     2.5480 C.ar    
   7 C7             1.6334    -2.4506     1.6682 C.ar    
   8 C8             1.0730    -1.8300     0.5483 C.ar    
   9 C9             0.2523    -2.6067    -0.3965 C.2     
  10 O10           -0.3228    -2.0437    -1.3070 O.2     
  11 O11            0.1392    -3.9418    -0.2512 O.3     
  12 C12           -0.6857    -4.6426    -1.2189 C.3     
  13 C13           -1.3250    -5.8905    -0.5795 C.3     
  14 C14           -2.8500    -5.7819    -0.6385 C.3     
  15 O15           -3.4333    -6.8846     0.0585 O.3     
  16 P16           -5.0239    -7.0913     0.1982 P.3     
  17 O17           -5.6411    -7.0934    -1.1470 O.2     
  18 O18           -5.3207    -8.4959     0.9270 O.3     
  19 P19           -6.6036    -9.4652     1.0070 P.3     
  20 O20           -6.9699    -9.9124    -0.3554 O.2     
  21 N21           -6.2362   -10.8048     1.9573 N.3     
  22 P22           -7.5538   -11.8461     2.0670 P.3     
  23 O23           -7.9279   -12.3128     0.7133 O.2     
  24 O24           -7.1628   -13.1118     2.9820 O.3     
  25 O25           -8.7984   -11.0689     2.7297 O.3     
  26 O26           -7.8397    -8.6667     1.6602 O.3     
  27 O27           -5.6463    -5.8911     1.0723 O.3     
  28 O28           -0.8865    -7.0309    -1.3368 O.3     
  29 C29            0.3843    -6.6819    -1.9266 C.3     
  30 C30            0.1867    -5.2086    -2.3657 C.3     
  31 O31           -0.5038    -5.1370    -3.6148 O.3     
  32 N32            1.4586    -6.7853    -0.9360 N.pl3   
  33 C33            1.3120    -6.7551     0.4189 C.2     
  34 N34            2.4734    -6.8727     0.9944 N.2     
  35 C35            3.4361    -6.9855     0.0480 C.ar    
  36 C36            2.7961    -6.9362    -1.2017 C.ar    
  37 N37            3.5290    -7.0279    -2.3068 N.ar    
  38 C38            4.8362    -7.1631    -2.2355 C.ar    
  39 N39            5.4820    -7.2143    -1.0846 N.ar    
  40 C40            4.8334    -7.1345     0.0725 C.ar    
  41 N41            5.5188    -7.1887     1.2736 N.pl3   
  42 H42            1.9414     1.8885    -0.9790 H       
  43 H43            0.4014     1.9239    -1.8709 H       
  44 H44            0.4094     2.1133    -0.1011 H       
  45 H45            0.3003    -0.3586    -1.4628 H       
  46 H46            2.2650     1.3089     1.0552 H       
  47 H47            3.2276     0.1960     3.0214 H       
  48 H48            2.8282    -2.1984     3.4154 H       
  49 H49            1.4617    -3.5019     1.8462 H       
  50 H50           -1.4554    -3.9796    -1.6140 H       
  51 H51           -1.0000    -5.9837     0.4567 H       
  52 H52           -3.1662    -4.8489    -0.1719 H       
  53 H53           -3.1753    -5.7965    -1.6787 H       
  54 H54           -5.4230   -11.2866     1.6041 H       
  55 H55           -7.8767   -13.7552     3.0892 H       
  56 H56           -8.6241   -10.7343     3.6201 H       
  57 H57           -7.6700    -8.3434     2.5556 H       
  58 H58           -5.2869    -5.8293     1.9679 H       
  59 H59            0.5938    -7.3146    -2.7891 H       
  60 H60            1.1425    -4.6876    -2.4208 H       
  61 H61           -0.0358    -5.5599    -4.3477 H       
  62 H62            0.3710    -6.6490     0.9382 H       
  63 H63            5.4021    -7.2352    -3.1526 H       
  64 H64            6.4839    -7.2859     1.2773 H       
  65 H65            5.0340    -7.1294     2.1117 H       
@<TRIPOS>BOND
   1    1    2 1
   2    1   42 1
   3    1   43 1
   4    1   44 1
   5    2    3 1
   6    2   45 1
   7    3    4 ar
   8    3    8 ar
   9    4    5 ar
  10    4   46 1
  11    5    6 ar
  12    5   47 1
  13    6    7 ar
  14    6   48 1
  15    7    8 ar
  16    7   49 1
  17    8    9 1
  18    9   10 2
  19    9   11 1
  20   11   12 1
  21   12   13 1
  22   12   30 1
  23   12   50 1
  24   13   14 1
  25   13   28 1
  26   13   51 1
  27   14   15 1
  28   14   52 1
  29   14   53 1
  30   15   16 1
  31   16   17 2
  32   16   18 1
  33   16   27 1
  34   18   19 1
  35   19   20 2
  36   19   21 1
  37   19   26 1
  38   21   22 1
  39   21   54 1
  40   22   23 2
  41   22   24 1
  42   22   25 1
  43   24   55 1
  44   25   56 1
  45   26   57 1
  46   27   58 1
  47   28   29 1
  48   29   30 1
  49   29   32 1
  50   29   59 1
  51   30   31 1
  52   30   60 1
  53   31   61 1
  54   32   33 1
  55   32   36 1
  56   33   34 2
  57   33   62 1
  58   34   35 1
  59   35   36 ar
  60   35   40 ar
  61   36   37 ar
  62   37   38 ar
  63   38   39 ar
  64   38   63 1
  65   39   40 ar
  66   40   41 1
  67   41   64 1
  68   41   65 1

#	End of record

