#	Name: ASD03621007
#	Creating user name:	WinNT
#	Creation time:	15. 06. 2019 20:43

#	Modifying user name:	WinNT
#	Modification time:	15. 06. 2019 20:43

#	Program:	/corina/corina34_cracker 3.40 0067  02.08.2006

@<TRIPOS>MOLECULE
ASD03621007
  85   88    0    0    0
SMALL
NO_CHARGES


@<TRIPOS>ATOM
   1 C1             8.8363     6.2273     4.3851 C.ar    
   2 C2            10.0722     6.6127     3.9004 C.ar    
   3 C3            10.3770     6.4340     2.5640 C.ar    
   4 C4             9.4460     5.8694     1.7123 C.ar    
   5 C5             8.2104     5.4832     2.1971 C.ar    
   6 C6             7.9052     5.6632     3.5333 C.ar    
   7 C7             9.7779     5.6755     0.2552 C.3     
   8 C8            10.4063     4.3198     0.0592 C.2     
   9 N9            10.7878     3.9255    -1.1718 N.am    
  10 O10           10.5687     3.5837     1.0092 O.2     
  11 C11            9.3425     0.1354    -4.0084 C.2     
  12 N12           10.3971     0.7134    -4.6168 N.am    
  13 O13            9.0482    -1.0127    -4.2659 O.2     
  14 C14           11.1880    -0.0451    -5.5891 C.3     
  15 C15           12.5808     0.5263    -5.6588 C.2     
  16 N16           13.4905    -0.0156    -6.4925 N.am    
  17 O17           12.8829     1.4738    -4.9646 O.2     
  18 C18           10.5289     0.0484    -6.9666 C.3     
  19 C19            9.1851    -0.6326    -6.9278 C.ar    
  20 C20           14.8086     0.6061    -6.6424 C.3     
  21 C21           15.0745     0.8872    -8.1227 C.3     
  22 C22           15.8830    -0.3396    -6.1019 C.3     
  23 C23           15.6935    -0.5193    -4.6177 C.ar    
  24 C24           14.8870    -1.5364    -4.1420 C.ar    
  25 C25           14.7132    -1.7012    -2.7806 C.ar    
  26 C26           15.3460    -0.8493    -1.8948 C.ar    
  27 C27           16.1532     0.1672    -2.3705 C.ar    
  28 C28           16.3305     0.3293    -3.7318 C.ar    
  29 C29            8.5288     0.9156    -3.0082 C.3     
  30 C30            8.0490     0.0800    -6.5948 C.ar    
  31 N31            6.8696    -0.5091    -6.5588 N.ar    
  32 C32            6.7255    -1.7900    -6.8365 C.ar    
  33 C33            7.8168    -2.5665    -7.1782 C.ar    
  34 C34            9.0723    -1.9810    -7.2314 C.ar    
  35 C35            7.4728     1.7860    -3.7340 C.3     
  36 C36            7.2210     2.9056    -2.6897 C.3     
  37 C37            8.6149     3.1107    -2.0600 C.3     
  38 N38            9.3838     1.8791    -2.2913 N.am    
  39 N39           11.3720     2.6652    -1.3540 N.am    
  40 C40           10.6589     1.6660    -1.9103 C.2     
  41 O41           11.1659     0.5722    -2.0684 O.2     
  42 C42           12.7580     2.4336    -0.9398 C.3     
  43 C43           12.7756     1.8568     0.4143 C.1     
  44 C44           12.7896     1.3968     1.4944 C.1     
  45 C45           14.0995     1.9230    -8.6203 C.2     
  46 O46           13.3475     2.4662    -7.8460 O.2     
  47 O47           14.0665     2.2423    -9.9236 O.3     
  48 H48            8.5999     6.3628     5.4301 H       
  49 H49           10.7996     7.0538     4.5659 H       
  50 H50           11.3423     6.7357     2.1852 H       
  51 H51            7.4828     5.0427     1.5316 H       
  52 H52            6.9397     5.3618     3.9120 H       
  53 H53            8.8653     5.7420    -0.3373 H       
  54 H54           10.4759     6.4492    -0.0646 H       
  55 H55           10.6579     4.5143    -1.9317 H       
  56 H56           10.6324     1.6316    -4.4108 H       
  57 H57           11.2387    -1.0893    -5.2807 H       
  58 H58           13.2726    -0.8172    -6.9933 H       
  59 H59           10.3975     1.0964    -7.2362 H       
  60 H60           11.1627    -0.4403    -7.7066 H       
  61 H61           14.8344     1.5421    -6.0845 H       
  62 H62           16.0922     1.2578    -8.2450 H       
  63 H63           14.9513    -0.0322    -8.6950 H       
  64 H64           15.7994    -1.3063    -6.5985 H       
  65 H65           16.8691     0.0833    -6.2937 H       
  66 H66           14.3926    -2.2019    -4.8341 H       
  67 H67           14.0826    -2.4953    -2.4090 H       
  68 H68           15.2096    -0.9776    -0.8312 H       
  69 H69           16.6474     0.8330    -1.6784 H       
  70 H70           16.9611     1.1235    -4.1034 H       
  71 H71            8.0440     0.2391    -2.3044 H       
  72 H72            8.1278     1.1314    -6.3611 H       
  73 H73            5.7435    -2.2378    -6.7961 H       
  74 H74            7.6925    -3.6152    -7.4042 H       
  75 H75            9.9429    -2.5629    -7.4954 H       
  76 H76            7.8752     2.1981    -4.6593 H       
  77 H77            6.5624     1.2177    -3.9247 H       
  78 H78            6.8802     3.8187    -3.1779 H       
  79 H79            6.5028     2.5776    -1.9383 H       
  80 H80            9.1154     3.9548    -2.5343 H       
  81 H81            8.5153     3.2900    -0.9895 H       
  82 H82           13.2344     1.7425    -1.6353 H       
  83 H83           13.2999     3.3793    -0.9390 H       
  84 H84           12.8022     0.9854     2.4603 H       
  85 H85           13.4243     2.9122   -10.1954 H       
@<TRIPOS>BOND
   1    1    2 ar
   2    1    6 ar
   3    1   48 1
   4    2    3 ar
   5    2   49 1
   6    3    4 ar
   7    3   50 1
   8    4    5 ar
   9    4    7 1
  10    5    6 ar
  11    5   51 1
  12    6   52 1
  13    7    8 1
  14    7   53 1
  15    7   54 1
  16    8    9 am
  17    8   10 2
  18    9   39 1
  19    9   55 1
  20   11   12 am
  21   11   13 2
  22   11   29 1
  23   12   14 1
  24   12   56 1
  25   14   15 1
  26   14   18 1
  27   14   57 1
  28   15   16 am
  29   15   17 2
  30   16   20 1
  31   16   58 1
  32   18   19 1
  33   18   59 1
  34   18   60 1
  35   19   30 ar
  36   19   34 ar
  37   20   21 1
  38   20   22 1
  39   20   61 1
  40   21   45 1
  41   21   62 1
  42   21   63 1
  43   22   23 1
  44   22   64 1
  45   22   65 1
  46   23   24 ar
  47   23   28 ar
  48   24   25 ar
  49   24   66 1
  50   25   26 ar
  51   25   67 1
  52   26   27 ar
  53   26   68 1
  54   27   28 ar
  55   27   69 1
  56   28   70 1
  57   29   35 1
  58   29   38 1
  59   29   71 1
  60   30   31 ar
  61   30   72 1
  62   31   32 ar
  63   32   33 ar
  64   32   73 1
  65   33   34 ar
  66   33   74 1
  67   34   75 1
  68   35   36 1
  69   35   76 1
  70   35   77 1
  71   36   37 1
  72   36   78 1
  73   36   79 1
  74   37   38 1
  75   37   80 1
  76   37   81 1
  77   38   40 am
  78   39   40 am
  79   39   42 1
  80   40   41 2
  81   42   43 1
  82   42   82 1
  83   42   83 1
  84   43   44 3
  85   44   84 1
  86   45   46 2
  87   45   47 1
  88   47   85 1

#	End of record

