#	Name: ASD02690044
#	Creating user name:	WinNT
#	Creation time:	15. 06. 2019 20:26

#	Modifying user name:	WinNT
#	Modification time:	15. 06. 2019 20:26

#	Program:	/corina/corina34_cracker 3.40 0067  02.08.2006

@<TRIPOS>MOLECULE
ASD02690044
  61   64    0    0    0
SMALL
NO_CHARGES


@<TRIPOS>ATOM
   1 C1             0.0500     0.6336     0.6378 C.2     
   2 O2             0.0043    -0.5785     0.6432 O.2     
   3 C3             1.3455     1.3199     0.7251 C.ar    
   4 C4             2.5293     0.5773     0.8148 C.ar    
   5 C5             3.7362     1.2229     0.8962 C.ar    
   6 C6             3.7859     2.6128     0.8898 C.ar    
   7 C7             2.6131     3.3550     0.8010 C.ar    
   8 C8             1.4015     2.7191     0.7133 C.ar    
   9 O9             4.9826     3.2468     0.9710 O.3     
  10 C10            4.9618     4.6756     0.9594 C.3     
  11 N11           -4.0238     1.7329     1.1672 N.3     
  12 C12           -3.6079     1.3918    -0.1993 C.3     
  13 C13           -2.3019     0.5954    -0.1526 C.3     
  14 C14           -1.2220     1.4352     0.5351 C.3     
  15 C15           -1.7004     1.8176     1.9384 C.3     
  16 C16           -3.0238     2.5787     1.8311 C.3     
  17 N17           -8.0760     2.5625     1.8785 N.am    
  18 C18           -7.7415     2.1224     0.5172 C.3     
  19 C19           -6.3733     1.4338     0.5438 C.3     
  20 C20           -5.3439     2.3773     1.1702 C.3     
  21 C21           -5.7520     2.6967     2.6102 C.3     
  22 C22           -7.1131     3.3997     2.6070 C.3     
  23 O23           -6.4570     0.2365     1.3194 O.3     
  24 C24           -9.2464     2.2095     2.4462 C.2     
  25 C25          -10.2591     1.4762     1.6573 C.ar    
  26 C26          -10.9792     0.4316     2.2391 C.ar    
  27 C27          -11.9231    -0.2483     1.4975 C.ar    
  28 C28          -12.1564     0.1029     0.1797 C.ar    
  29 C29          -11.4461     1.1375    -0.4030 C.ar    
  30 C30          -10.5034     1.8292     0.3292 C.ar    
  31 O31           -9.4692     2.4940     3.6067 O.2     
  32 H32            2.4918    -0.5021     0.8202 H       
  33 H33            4.6499     0.6512     0.9657 H       
  34 H34            2.6571     4.4341     0.7968 H       
  35 H35            0.4916     3.2963     0.6398 H       
  36 H36            4.3805     5.0375     1.8074 H       
  37 H37            5.9815     5.0544     1.0297 H       
  38 H38            4.5077     5.0248     0.0320 H       
  39 H39           -4.3828     0.7911    -0.6755 H       
  40 H40           -3.4549     2.3069    -0.7714 H       
  41 H41           -2.4578    -0.3265     0.4077 H       
  42 H42           -1.9853     0.3558    -1.1677 H       
  43 H43           -1.0374     2.3383    -0.0466 H       
  44 H44           -1.8468     0.9150     2.5316 H       
  45 H45           -0.9540     2.4514     2.4173 H       
  46 H46           -2.8736     3.4882     1.2495 H       
  47 H47           -3.3744     2.8400     2.8296 H       
  48 H48           -8.4970     1.4206     0.1640 H       
  49 H49           -7.7031     2.9860    -0.1468 H       
  50 H50           -6.0698     1.1882    -0.4738 H       
  51 H51           -5.2987     3.3005     0.5925 H       
  52 H52           -5.8217     1.7716     3.1823 H       
  53 H53           -5.0063     3.3499     3.0633 H       
  54 H54           -7.0235     4.3673     2.1134 H       
  55 H55           -7.4540     3.5406     3.6327 H       
  56 H56           -7.0939    -0.4076     0.9810 H       
  57 H57          -10.7975     0.1559     3.2674 H       
  58 H58          -12.4810    -1.0568     1.9465 H       
  59 H59          -12.8960    -0.4330    -0.3967 H       
  60 H60          -11.6330     1.4067    -1.4321 H       
  61 H61           -9.9528     2.6395    -0.1255 H       
@<TRIPOS>BOND
   1    1    2 2
   2    1    3 1
   3    1   14 1
   4    3    4 ar
   5    3    8 ar
   6    4    5 ar
   7    4   32 1
   8    5    6 ar
   9    5   33 1
  10    6    7 ar
  11    6    9 1
  12    7    8 ar
  13    7   34 1
  14    8   35 1
  15    9   10 1
  16   10   36 1
  17   10   37 1
  18   10   38 1
  19   11   12 1
  20   11   16 1
  21   11   20 1
  22   12   13 1
  23   12   39 1
  24   12   40 1
  25   13   14 1
  26   13   41 1
  27   13   42 1
  28   14   15 1
  29   14   43 1
  30   15   16 1
  31   15   44 1
  32   15   45 1
  33   16   46 1
  34   16   47 1
  35   17   18 1
  36   17   22 1
  37   17   24 am
  38   18   19 1
  39   18   48 1
  40   18   49 1
  41   19   20 1
  42   19   23 1
  43   19   50 1
  44   20   21 1
  45   20   51 1
  46   21   22 1
  47   21   52 1
  48   21   53 1
  49   22   54 1
  50   22   55 1
  51   23   56 1
  52   24   25 1
  53   24   31 2
  54   25   26 ar
  55   25   30 ar
  56   26   27 ar
  57   26   57 1
  58   27   28 ar
  59   27   58 1
  60   28   29 ar
  61   28   59 1
  62   29   30 ar
  63   29   60 1
  64   30   61 1

#	End of record

