#	Name: ASD01901180
#	Creating user name:	WinNT
#	Creation time:	15. 06. 2019 19:53

#	Modifying user name:	WinNT
#	Modification time:	15. 06. 2019 19:53

#	Program:	/corina/corina34_cracker 3.40 0067  02.08.2006

@<TRIPOS>MOLECULE
ASD01901180
  54   57    0    0    0
SMALL
NO_CHARGES


@<TRIPOS>ATOM
   1 C1             1.5988     1.5297    -1.6641 C.ar    
   2 C2             1.6917     0.1579    -1.7718 C.ar    
   3 C3             1.6795    -0.6313    -0.6352 C.ar    
   4 C4             1.5746    -0.0514     0.6169 C.ar    
   5 C5             1.4814     1.3190     0.7403 C.ar    
   6 C6             1.4926     2.1224    -0.4031 C.ar    
   7 C7             1.3963     3.5461    -0.2830 C.1     
   8 C8             1.3173     4.7133    -0.1847 C.1     
   9 C9             1.2209     6.1370    -0.0646 C.ar    
  10 C10            1.1140     6.7397     1.1974 C.ar    
  11 C11            1.0242     8.1161     1.2612 C.ar    
  12 C12            1.0424     8.8542     0.0825 C.ar    
  13 N13            1.1444     8.2563    -1.0945 N.ar    
  14 C14            1.2378     6.9474    -1.2023 C.ar    
  15 N15            0.9514    10.2465     0.1412 N.am    
  16 C16            2.0723    10.9787     0.2524 C.2     
  17 N17            2.0633    12.3097     0.0744 N.am    
  18 C18            0.8519    13.0014    -0.3700 C.3     
  19 C19           -0.3765    12.3291     0.2475 C.3     
  20 C20           -0.2572    10.8348     0.0800 C.2     
  21 O21            3.1193    10.4233     0.5209 O.2     
  22 C22            0.9072     8.8109     2.5933 C.3     
  23 O23           -1.2496    10.1638    -0.1060 O.2     
  24 C24            0.9112    14.4636     0.0765 C.3     
  25 C25            0.7563    12.9389    -1.8726 C.ar    
  26 C26            3.2829    13.0806     0.3290 C.3     
  27 C27            1.7841    12.3787    -2.6079 C.ar    
  28 C28            1.6965    12.3214    -3.9863 C.ar    
  29 C29            0.5808    12.8240    -4.6294 C.ar    
  30 C30           -0.4475    13.3834    -3.8940 C.ar    
  31 C31           -0.3617    13.4367    -2.5154 C.ar    
  32 F32            0.7743     7.8562     3.6072 F       
  33 F33            2.0551     9.5773     2.8220 F       
  34 F34           -0.2164     9.6444     2.5874 F       
  35 H35            1.6127     2.1446    -2.5518 H       
  36 H36            1.7739    -0.3016    -2.7458 H       
  37 H37            1.7518    -1.7050    -0.7257 H       
  38 H38            1.5653    -0.6736     1.4996 H       
  39 H39            1.3992     1.7702     1.7181 H       
  40 H40            1.1019     6.1420     2.0969 H       
  41 H41            1.3242     6.4958    -2.1796 H       
  42 H42           -0.4330    12.5769     1.3075 H       
  43 H43           -1.2763    12.6799    -0.2578 H       
  44 H44            0.9799    14.5091     1.1634 H       
  45 H45            1.7860    14.9426    -0.3632 H       
  46 H46            0.0099    14.9808    -0.2525 H       
  47 H47            4.0779    12.4074     0.6498 H       
  48 H48            3.5865    13.5922    -0.5843 H       
  49 H49            3.0916    13.8156     1.1108 H       
  50 H50            2.6558    11.9861    -2.1054 H       
  51 H51            2.4998    11.8844    -4.5607 H       
  52 H52            0.5126    12.7798    -5.7063 H       
  53 H53           -1.3190    13.7763    -4.3965 H       
  54 H54           -1.1667    13.8704    -1.9406 H       
@<TRIPOS>BOND
   1    1    2 ar
   2    1    6 ar
   3    1   35 1
   4    2    3 ar
   5    2   36 1
   6    3    4 ar
   7    3   37 1
   8    4    5 ar
   9    4   38 1
  10    5    6 ar
  11    5   39 1
  12    6    7 1
  13    7    8 3
  14    8    9 1
  15    9   10 ar
  16    9   14 ar
  17   10   11 ar
  18   10   40 1
  19   11   12 ar
  20   11   22 1
  21   12   13 ar
  22   12   15 1
  23   13   14 ar
  24   14   41 1
  25   15   16 am
  26   15   20 am
  27   16   17 am
  28   16   21 2
  29   17   26 1
  30   17   18 1
  31   18   19 1
  32   18   24 1
  33   18   25 1
  34   19   20 1
  35   19   42 1
  36   19   43 1
  37   20   23 2
  38   22   32 1
  39   22   33 1
  40   22   34 1
  41   24   44 1
  42   24   45 1
  43   24   46 1
  44   25   27 ar
  45   25   31 ar
  46   26   47 1
  47   26   48 1
  48   26   49 1
  49   27   28 ar
  50   27   50 1
  51   28   29 ar
  52   28   51 1
  53   29   30 ar
  54   29   52 1
  55   30   31 ar
  56   30   53 1
  57   31   54 1

#	End of record

