#	Name: ASD01812599
#	Creating user name:	WinNT
#	Creation time:	15. 06. 2019 19:28

#	Modifying user name:	WinNT
#	Modification time:	15. 06. 2019 19:28

#	Program:	/corina/corina34_cracker 3.40 0067  02.08.2006

@<TRIPOS>MOLECULE
ASD01812599
  45   49    0    0    0
SMALL
NO_CHARGES


@<TRIPOS>ATOM
   1 C1            -0.0178     1.4608     0.0101 C.3     
   2 N2             0.0021    -0.0041     0.0020 N.pl3   
   3 C3             0.0074    -0.7682    -1.1002 C.2     
   4 C4             0.0271    -2.0867    -0.7014 C.ar    
   5 C5             0.0410    -3.3778    -1.3910 C.ar    
   6 C6             0.0598    -4.5314    -0.6327 C.ar    
   7 C7             0.0656    -4.4832     0.7590 C.ar    
   8 C8             0.0533    -3.3168     1.4501 C.ar    
   9 C9             0.0338    -2.0809     0.7697 C.ar    
  10 N10            0.0244    -0.8140     1.1435 N.2     
  11 C11            0.0347    -3.4452    -2.8701 C.ar    
  12 C12           -0.8994    -2.7103    -3.6001 C.ar    
  13 C13           -0.9009    -2.7763    -4.9806 C.ar    
  14 F14           -1.8048    -2.0646    -5.6888 F       
  15 C15            0.0233    -3.5706    -5.6394 C.ar    
  16 C16            0.0174    -3.6384    -7.1449 C.3     
  17 N17            0.8940    -2.5958    -7.6841 N.am    
  18 C18            0.4864    -1.2280    -8.0237 C.3     
  19 C19            1.7236    -0.5321    -8.5376 C.ar    
  20 N20            1.9499     0.6849    -8.9788 N.ar    
  21 C21            3.1480     1.0655    -9.3830 C.ar    
  22 C22            4.2207     0.1927    -9.3586 C.ar    
  23 C23            4.0334    -1.1009    -8.9022 C.ar    
  24 C24            2.7533    -1.4739    -8.4806 C.ar    
  25 C25            2.2060    -2.7328    -7.9439 C.2     
  26 O26            2.8479    -3.7493    -7.7642 O.2     
  27 C27            0.9531    -4.3025    -4.9191 C.ar    
  28 F28            1.8521    -5.0750    -5.5675 F       
  29 C29            0.9664    -4.2393    -3.5385 C.ar    
  30 H30            1.0048     1.8381     0.0023 H       
  31 H31           -0.5450     1.8219    -0.8730 H       
  32 H32           -0.5280     1.8123     0.9069 H       
  33 H33           -0.0022    -0.4127    -2.1199 H       
  34 H34            0.0699    -5.4907    -1.1289 H       
  35 H35            0.0800    -5.4120     1.3098 H       
  36 H36            0.0585    -3.3338     2.5299 H       
  37 H37           -1.6205    -2.0910    -3.0874 H       
  38 H38            0.3760    -4.6164    -7.4659 H       
  39 H39           -0.9976    -3.4853    -7.5115 H       
  40 H40           -0.2810    -1.2473    -8.7976 H       
  41 H41            0.1112    -0.7179    -7.1365 H       
  42 H42            3.2926     2.0749    -9.7388 H       
  43 H43            5.1951     0.5172    -9.6928 H       
  44 H44            4.8536    -1.8029    -8.8728 H       
  45 H45            1.6946    -4.8068    -2.9779 H       
@<TRIPOS>BOND
   1    1    2 1
   2    1   30 1
   3    1   31 1
   4    1   32 1
   5    2   10 1
   6    2    3 1
   7    3    4 2
   8    3   33 1
   9    4    9 ar
  10    4    5 ar
  11    5    6 ar
  12    5   11 1
  13    6    7 ar
  14    6   34 1
  15    7    8 ar
  16    7   35 1
  17    8    9 ar
  18    8   36 1
  19    9   10 2
  20   11   29 ar
  21   11   12 ar
  22   12   13 ar
  23   12   37 1
  24   13   14 1
  25   13   15 ar
  26   15   16 1
  27   15   27 ar
  28   16   17 1
  29   16   38 1
  30   16   39 1
  31   17   25 am
  32   17   18 1
  33   18   19 1
  34   18   40 1
  35   18   41 1
  36   19   24 ar
  37   19   20 ar
  38   20   21 ar
  39   21   22 ar
  40   21   42 1
  41   22   23 ar
  42   22   43 1
  43   23   24 ar
  44   23   44 1
  45   24   25 1
  46   25   26 2
  47   27   28 1
  48   27   29 ar
  49   29   45 1

#	End of record

