#	Name: ASD01912098
#	Creating user name:	WinNT
#	Creation time:	15. 06. 2019 19:59

#	Modifying user name:	WinNT
#	Modification time:	15. 06. 2019 19:59

#	Program:	/corina/corina34_cracker 3.40 0067  02.08.2006

@<TRIPOS>MOLECULE
ASD01912098
  54   58    0    0    0
SMALL
NO_CHARGES


@<TRIPOS>ATOM
   1 N1             0.0118     1.3379    -0.2152 N.2     
   2 C2            -0.0023     0.0067    -0.0869 C.2     
   3 N3             1.2209    -0.4120     0.1573 N.2     
   4 N4             2.0444     0.7252     0.1825 N.pl3   
   5 C5             1.2388     1.7863    -0.0554 C.2     
   6 C6             1.6633     3.2024    -0.1243 C.ar    
   7 C7             0.7271     4.2230     0.0420 C.ar    
   8 C8             1.1290     5.5413    -0.0234 C.ar    
   9 C9             2.4574     5.8518    -0.2533 C.ar    
  10 C10            3.3907     4.8442    -0.4191 C.ar    
  11 C11            3.0022     3.5220    -0.3501 C.ar    
  12 C12           -1.2030    -0.8580    -0.2007 C.ar    
  13 C13           -2.4489    -0.2923    -0.4629 C.ar    
  14 C14           -3.5629    -1.1000    -0.5679 C.ar    
  15 C15           -3.4436    -2.4714    -0.4130 C.ar    
  16 C16           -2.2064    -3.0381    -0.1517 C.ar    
  17 C17           -1.0866    -2.2386    -0.0513 C.ar    
  18 C18            3.4898     0.7567     0.4195 C.3     
  19 C19            4.2172     0.5788    -0.8883 C.2     
  20 N20            5.5647     0.5746    -0.9147 N.am    
  21 O21            3.5901     0.4395    -1.9169 O.2     
  22 C22           -4.9112    -0.4892    -0.8510 C.3     
  23 F23           -4.5367    -3.2585    -0.5166 F       
  24 C24            6.1984     0.3982    -2.2116 C.3     
  25 C25            6.8539     1.7227    -2.6470 C.3     
  26 C26            8.1139     1.8863    -1.8168 C.2     
  27 C27            8.1411     2.0666    -0.4948 C.2     
  28 C28            6.9146     2.1364     0.3975 C.3     
  29 C29            6.2498     0.7527     0.3555 C.3     
  30 O30            9.3831     1.8787    -2.2515 O.3     
  31 C31           10.1737     2.0569    -1.1805 C.2     
  32 N32            9.4230     2.1706    -0.1179 N.2     
  33 H33           -0.3103     3.9818     0.2212 H       
  34 H34            0.4051     6.3324     0.1048 H       
  35 H35            2.7671     6.8852    -0.3040 H       
  36 H36            4.4263     5.0929    -0.5983 H       
  37 H37            3.7318     2.7362    -0.4793 H       
  38 H38           -2.5428     0.7769    -0.5834 H       
  39 H39           -2.1179    -4.1077    -0.0310 H       
  40 H40           -0.1226    -2.6812     0.1520 H       
  41 H41            3.7648     1.7147     0.8609 H       
  42 H42            3.7640    -0.0491     1.1003 H       
  43 H43           -5.0692    -0.4410    -1.9284 H       
  44 H44           -5.6900    -1.1014    -0.3965 H       
  45 H45           -4.9494     0.5167    -0.4328 H       
  46 H46            6.9601    -0.3783    -2.1413 H       
  47 H47            5.4479     0.1056    -2.9459 H       
  48 H48            7.1089     1.6813    -3.7060 H       
  49 H49            6.1741     2.5538    -2.4592 H       
  50 H50            7.2105     2.3770     1.4186 H       
  51 H51            6.2236     2.8910     0.0217 H       
  52 H52            5.5304     0.6704     1.1702 H       
  53 H53            7.0113    -0.0196     0.4642 H       
  54 H54           11.2528     2.0988    -1.1954 H       
@<TRIPOS>BOND
   1    1    2 1
   2    1    5 2
   3    2    3 2
   4    2   12 1
   5    3    4 1
   6    4    5 1
   7    4   18 1
   8    5    6 1
   9    6    7 ar
  10    6   11 ar
  11    7    8 ar
  12    7   33 1
  13    8    9 ar
  14    8   34 1
  15    9   10 ar
  16    9   35 1
  17   10   11 ar
  18   10   36 1
  19   11   37 1
  20   12   13 ar
  21   12   17 ar
  22   13   14 ar
  23   13   38 1
  24   14   15 ar
  25   14   22 1
  26   15   16 ar
  27   15   23 1
  28   16   17 ar
  29   16   39 1
  30   17   40 1
  31   18   19 1
  32   18   41 1
  33   18   42 1
  34   19   20 am
  35   19   21 2
  36   20   24 1
  37   20   29 1
  38   22   43 1
  39   22   44 1
  40   22   45 1
  41   24   25 1
  42   24   46 1
  43   24   47 1
  44   25   26 1
  45   25   48 1
  46   25   49 1
  47   26   27 2
  48   26   30 1
  49   27   28 1
  50   27   32 1
  51   28   29 1
  52   28   50 1
  53   28   51 1
  54   29   52 1
  55   29   53 1
  56   30   31 1
  57   31   32 2
  58   31   54 1

#	End of record

