#	Name: ASD03091173
#	Creating user name:	WinNT
#	Creation time:	15. 06. 2019 20:30

#	Modifying user name:	WinNT
#	Modification time:	15. 06. 2019 20:30

#	Program:	/corina/corina34_cracker 3.40 0067  02.08.2006

@<TRIPOS>MOLECULE
ASD03091173
  64   68    0    0    0
SMALL
NO_CHARGES


@<TRIPOS>ATOM
   1 C1            -0.0282     1.4683     0.0327 C.2     
   2 C2             0.0042    -0.0382     0.0107 C.3     
   3 O3             1.0088     2.0972     0.0349 O.2     
   4 N4            -1.2097     2.1168     0.0443 N.am    
   5 C5            -1.2412     3.5813     0.0657 C.3     
   6 C6            -1.1291     4.1147    -1.3639 C.3     
   7 C7            -2.5581     4.0541     0.6847 C.3     
   8 N8             3.3302    -1.0140     1.2306 N.2     
   9 C9             2.0875    -0.6114     1.1703 C.2     
  10 N10            1.3956    -0.4965    -0.0051 N.am    
  11 C11            1.9891    -0.8043    -1.1819 C.2     
  12 C12            3.3867    -1.2595    -1.1383 C.ar    
  13 C13            4.0844    -1.5992    -2.2951 C.ar    
  14 C14            5.3994    -2.0214    -2.1955 C.ar    
  15 C15            6.0213    -2.1069    -0.9497 C.ar    
  16 C16            5.3502    -1.7778     0.1927 C.ar    
  17 C17            4.0216    -1.3475     0.1218 C.ar    
  18 C18            1.3976    -0.2644     2.4306 C.ar    
  19 C19            0.1885    -0.8792     2.7602 C.ar    
  20 C20           -0.4502    -0.5508     3.9380 C.ar    
  21 C21            0.1048     0.3860     4.7916 C.ar    
  22 C22            1.3030     0.9992     4.4710 C.ar    
  23 C23            1.9552     0.6753     3.2993 C.ar    
  24 O24            1.3886    -0.7084    -2.2364 O.2     
  25 N25            7.1070    -2.0619    -6.1216 N.3     
  26 C26            5.9231    -2.8634    -5.7761 C.3     
  27 C27            5.2425    -2.3086    -4.5344 C.3     
  28 N28            6.1079    -2.3643    -3.3503 N.3     
  29 C29            7.2815    -1.4972    -3.5251 C.3     
  30 C30            8.4565    -2.2972    -4.0673 C.3     
  31 C31            8.3110    -2.6634    -5.5306 C.3     
  32 C32            7.0103    -0.6387    -5.8777 C.3     
  33 C33            6.9010    -0.3144    -4.3968 C.3     
  34 H34           -0.4958    -0.4254     0.8986 H       
  35 H35           -0.5076    -0.3997    -0.8812 H       
  36 H36           -2.0391     1.6138     0.0385 H       
  37 H37           -0.4063     3.9541     0.6591 H       
  38 H38           -0.1909     3.7779    -1.8049 H       
  39 H39           -1.9640     3.7419    -1.9573 H       
  40 H40           -1.1526     5.2044    -1.3480 H       
  41 H41           -2.6379     3.6740     1.7032 H       
  42 H42           -2.5816     5.1437     0.7006 H       
  43 H43           -3.3930     3.6813     0.0913 H       
  44 H44            3.6042    -1.5342    -3.2603 H       
  45 H45            7.0473    -2.4382    -0.8881 H       
  46 H46            5.8448    -1.8498     1.1500 H       
  47 H47           -0.2461    -1.6101     2.0944 H       
  48 H48           -1.3858    -1.0257     4.1942 H       
  49 H49           -0.3997     0.6401     5.7122 H       
  50 H50            1.7307     1.7298     5.1415 H       
  51 H51            2.8929     1.1511     3.0525 H       
  52 H52            5.2207    -2.8441    -6.6094 H       
  53 H53            6.2285    -3.8927    -5.5885 H       
  54 H54            4.9628    -1.2714    -4.7188 H       
  55 H55            4.3392    -2.8865    -4.3390 H       
  56 H56            7.5608    -1.1065    -2.5466 H       
  57 H57            9.3663    -1.7099    -3.9429 H       
  58 H58            8.5533    -3.2139    -3.4856 H       
  59 H59            8.2484    -3.7477    -5.6215 H       
  60 H60            9.1879    -2.3119    -6.0743 H       
  61 H61            7.8966    -0.1497    -6.2821 H       
  62 H62            6.1299    -0.2511    -6.3903 H       
  63 H63            5.8745    -0.0247    -4.1724 H       
  64 H64            7.5616     0.5217    -4.1675 H       
@<TRIPOS>BOND
   1    1    2 1
   2    1    3 2
   3    1    4 am
   4    2   10 1
   5    2   34 1
   6    2   35 1
   7    4    5 1
   8    4   36 1
   9    5    6 1
  10    5    7 1
  11    5   37 1
  12    6   38 1
  13    6   39 1
  14    6   40 1
  15    7   41 1
  16    7   42 1
  17    7   43 1
  18    8    9 2
  19    8   17 1
  20    9   10 1
  21    9   18 1
  22   10   11 am
  23   11   12 1
  24   11   24 2
  25   12   13 ar
  26   12   17 ar
  27   13   14 ar
  28   13   44 1
  29   14   15 ar
  30   14   28 1
  31   15   16 ar
  32   15   45 1
  33   16   17 ar
  34   16   46 1
  35   18   19 ar
  36   18   23 ar
  37   19   20 ar
  38   19   47 1
  39   20   21 ar
  40   20   48 1
  41   21   22 ar
  42   21   49 1
  43   22   23 ar
  44   22   50 1
  45   23   51 1
  46   25   26 1
  47   25   31 1
  48   25   32 1
  49   26   27 1
  50   26   52 1
  51   26   53 1
  52   27   28 1
  53   27   54 1
  54   27   55 1
  55   28   29 1
  56   29   30 1
  57   29   33 1
  58   29   56 1
  59   30   31 1
  60   30   57 1
  61   30   58 1
  62   31   59 1
  63   31   60 1
  64   32   33 1
  65   32   61 1
  66   32   62 1
  67   33   63 1
  68   33   64 1

#	End of record

