#	Name: ASD01810751
#	Creating user name:	WinNT
#	Creation time:	15. 06. 2019 19:25

#	Modifying user name:	WinNT
#	Modification time:	15. 06. 2019 19:25

#	Program:	/corina/corina34_cracker 3.40 0067  02.08.2006

@<TRIPOS>MOLECULE
ASD01810751
  62   67    0    0    0
SMALL
NO_CHARGES


@<TRIPOS>ATOM
   1 C1            -0.0164     1.3577     0.0095 C.2     
   2 C2             0.0021    -0.0041     0.0020 C.2     
   3 C3             1.2353    -0.6757    -0.0134 C.2     
   4 C4             2.4751     0.1081    -0.0211 C.2     
   5 N5             2.3944     1.4922    -0.0121 N.pl3   
   6 C6             3.5349     2.2306    -0.0190 C.2     
   7 C7             3.4864     3.5839    -0.0101 C.2     
   8 C8             2.2505     4.2411     0.0065 C.2     
   9 C9             1.0998     3.5074     0.0132 C.2     
  10 C10            1.1723     2.1042     0.0022 C.2     
  11 N11            2.9726    -2.0503    -0.0382 N.am    
  12 N12            3.4691    -0.7430    -0.0356 N.2     
  13 C13            1.6240    -2.0267    -0.0248 C.2     
  14 O14            0.8798    -2.9974    -0.0223 O.2     
  15 C15           -1.3401     2.0778     0.0197 C.3     
  16 C16           -3.2220     2.6937    -1.3731 C.3     
  17 N17           -1.8345     2.2133    -1.3570 N.3     
  18 C18           -1.7021     0.9481    -2.0906 C.3     
  19 C19           -2.0886     1.1635    -3.5556 C.3     
  20 C20           -3.5322     1.6686    -3.6285 C.3     
  21 C21           -3.6540     2.9612    -2.8167 C.3     
  22 C22            3.7578    -3.2101    -0.0524 C.ar    
  23 C23            4.7112    -3.3946    -1.0487 C.ar    
  24 C24            5.4840    -4.5410    -1.0589 C.ar    
  25 C25            5.3094    -5.5026    -0.0802 C.ar    
  26 C26            4.3623    -5.3215     0.9105 C.ar    
  27 C27            3.5906    -4.1756     0.9307 C.ar    
  28 F28            4.8812    -2.4553    -2.0047 F       
  29 C29           -3.8990     1.9396    -5.0648 C.ar    
  30 C30           -4.9509     1.2596    -5.6497 C.ar    
  31 C31           -5.2873     1.5082    -6.9673 C.ar    
  32 C32           -4.5722     2.4371    -7.6998 C.ar    
  33 C33           -3.5209     3.1178    -7.1146 C.ar    
  34 C34           -3.1873     2.8724    -5.7958 C.ar    
  35 C35           -4.9383     2.7074    -9.1364 C.3     
  36 F36           -5.8826     3.7382    -9.1910 F       
  37 F37           -3.7936     3.0855    -9.8462 F       
  38 F38           -5.4787     1.5493    -9.7057 F       
  39 H39           -0.9226    -0.5620     0.0083 H       
  40 H40            4.4927     1.7317    -0.0315 H       
  41 H41            4.4020     4.1566    -0.0154 H       
  42 H42            2.2080     5.3203     0.0144 H       
  43 H43            0.1398     4.0019     0.0264 H       
  44 H44           -2.0588     1.5088     0.6094 H       
  45 H45           -1.2122     3.0672     0.4588 H       
  46 H46           -3.8730     1.9382    -0.9333 H       
  47 H47           -3.2939     3.6154    -0.7958 H       
  48 H48           -0.6700     0.6020    -2.0344 H       
  49 H49           -2.3602     0.2007    -1.6474 H       
  50 H50           -1.4221     1.9006    -4.0033 H       
  51 H51           -2.0052     0.2207    -4.0963 H       
  52 H52           -4.2032     0.9150    -3.2162 H       
  53 H53           -4.6890     3.3028    -2.8295 H       
  54 H54           -3.0121     3.7266    -3.2527 H       
  55 H55            6.2243    -4.6859    -1.8318 H       
  56 H56            5.9142    -6.3974    -0.0901 H       
  57 H57            4.2284    -6.0751     1.6726 H       
  58 H58            2.8547    -4.0332     1.7083 H       
  59 H59           -5.5096     0.5338    -5.0774 H       
  60 H60           -6.1086     0.9763    -7.4245 H       
  61 H61           -2.9620     3.8433    -7.6870 H       
  62 H62           -2.3660     3.4042    -5.3386 H       
@<TRIPOS>BOND
   1    1    2 1
   2    1   10 2
   3    1   15 1
   4    2    3 2
   5    2   39 1
   6    3    4 1
   7    3   13 1
   8    4    5 1
   9    4   12 2
  10    5    6 1
  11    5   10 1
  12    6    7 2
  13    6   40 1
  14    7    8 1
  15    7   41 1
  16    8    9 2
  17    8   42 1
  18    9   10 1
  19    9   43 1
  20   11   12 1
  21   11   13 am
  22   11   22 1
  23   13   14 2
  24   15   17 1
  25   15   44 1
  26   15   45 1
  27   16   17 1
  28   16   21 1
  29   16   46 1
  30   16   47 1
  31   17   18 1
  32   18   19 1
  33   18   48 1
  34   18   49 1
  35   19   20 1
  36   19   50 1
  37   19   51 1
  38   20   21 1
  39   20   29 1
  40   20   52 1
  41   21   53 1
  42   21   54 1
  43   22   23 ar
  44   22   27 ar
  45   23   24 ar
  46   23   28 1
  47   24   25 ar
  48   24   55 1
  49   25   26 ar
  50   25   56 1
  51   26   27 ar
  52   26   57 1
  53   27   58 1
  54   29   30 ar
  55   29   34 ar
  56   30   31 ar
  57   30   59 1
  58   31   32 ar
  59   31   60 1
  60   32   33 ar
  61   32   35 1
  62   33   34 ar
  63   33   61 1
  64   34   62 1
  65   35   36 1
  66   35   37 1
  67   35   38 1

#	End of record

