#	Name: ASD09116067
#	Creating user name:	WinNT
#	Creation time:	15. 06. 2019 21:20

#	Modifying user name:	WinNT
#	Modification time:	15. 06. 2019 21:20

#	Program:	/corina/corina34_cracker 3.40 0067  02.08.2006

@<TRIPOS>MOLECULE
ASD09116067
  58   62    0    0    0
SMALL
NO_CHARGES


@<TRIPOS>ATOM
   1 C1            -0.0200     1.3893    -0.0242 C.ar    
   2 N2            -0.0125     0.0002    -0.1215 N.pl3   
   3 N3            -1.1004    -0.8642     0.0822 N.2     
   4 C4            -0.6611    -2.0847    -0.1079 C.2     
   5 N5             0.6395    -2.0398    -0.4194 N.2     
   6 C6             1.0484    -0.7894    -0.4385 C.2     
   7 N7             2.3294    -0.3564    -0.7209 N.pl3   
   8 N8            -1.4275    -3.2454    -0.0024 N.pl3   
   9 N9             1.1007     2.0565    -0.2499 N.ar    
  10 N10           -1.1522     2.0085     0.2870 N.ar    
  11 C11           -1.1800     3.3194     0.3860 C.ar    
  12 C12           -0.0248     4.0527     0.1500 C.ar    
  13 C13            1.1356     3.3796    -0.1735 C.ar    
  14 C14           -2.4189     4.0836     0.7678 C.3     
  15 C15           -3.1456     4.6185    -0.4246 C.3     
  16 C16           -2.6111     5.8724    -1.0883 C.3     
  17 C17           -1.3575     5.5470    -1.9207 C.3     
  18 C18           -0.1273     6.1331    -1.1733 C.3     
  19 C19           -0.0863     5.5516     0.2390 C.3     
  20 C20           -0.8189    -4.4977    -0.1201 C.ar    
  21 C21            0.5006    -4.6707     0.2721 C.ar    
  22 C22            1.1079    -5.9108     0.1566 C.ar    
  23 C23            0.3947    -6.9791    -0.3466 C.ar    
  24 C24           -0.9240    -6.8078    -0.7411 C.ar    
  25 C25           -1.5340    -5.5762    -0.6250 C.ar    
  26 C26            2.5458    -6.0462     0.5848 C.3     
  27 N27            2.8906    -7.4569     0.7874 N.3     
  28 C28            2.5342    -8.2451    -0.4030 C.3     
  29 C29            1.0107    -8.3486    -0.4785 C.3     
  30 C30            4.3150    -7.6092     1.1125 C.3     
  31 H31            3.0241    -1.0004    -0.9298 H       
  32 H32            2.5343     0.5917    -0.7103 H       
  33 H33           -2.3830    -3.1832     0.1528 H       
  34 H34            2.0536     3.9186    -0.3559 H       
  35 H35           -3.0859     3.4219     1.3205 H       
  36 H36           -2.1362     4.9160     1.4121 H       
  37 H37           -3.1714     3.8308    -1.1775 H       
  38 H38           -4.1745     4.8160    -0.1240 H       
  39 H39           -3.3782     6.2902    -1.7403 H       
  40 H40           -2.3552     6.6046    -0.3225 H       
  41 H41           -1.2497     4.4668    -2.0191 H       
  42 H42           -1.4412     6.0019    -2.9077 H       
  43 H43            0.7854     5.8649    -1.7054 H       
  44 H44           -0.2156     7.2182    -1.1192 H       
  45 H45           -0.9840     5.8481     0.7817 H       
  46 H46            0.7960     5.9224     0.7607 H       
  47 H47            1.0573    -3.8346     0.6690 H       
  48 H48           -1.4783    -7.6455    -1.1377 H       
  49 H49           -2.5611    -5.4487    -0.9336 H       
  50 H50            3.1917    -5.6251    -0.1856 H       
  51 H51            2.6963    -5.5016     1.5169 H       
  52 H52            2.9122    -7.7493    -1.2971 H       
  53 H53            2.9655    -9.2429    -0.3240 H       
  54 H54            0.6509    -8.9865     0.3288 H       
  55 H55            0.7246    -8.7834    -1.4362 H       
  56 H56            4.5551    -7.0033     1.9863 H       
  57 H57            4.5289    -8.6563     1.3266 H       
  58 H58            4.9180    -7.2808     0.2660 H       
@<TRIPOS>BOND
   1    1    2 1
   2    1    9 ar
   3    1   10 ar
   4    2    3 1
   5    2    6 1
   6    3    4 2
   7    4    5 1
   8    4    8 1
   9    5    6 2
  10    6    7 1
  11    7   31 1
  12    7   32 1
  13    8   20 1
  14    8   33 1
  15    9   13 ar
  16   10   11 ar
  17   11   12 ar
  18   11   14 1
  19   12   13 ar
  20   12   19 1
  21   13   34 1
  22   14   15 1
  23   14   35 1
  24   14   36 1
  25   15   16 1
  26   15   37 1
  27   15   38 1
  28   16   17 1
  29   16   39 1
  30   16   40 1
  31   17   18 1
  32   17   41 1
  33   17   42 1
  34   18   19 1
  35   18   43 1
  36   18   44 1
  37   19   45 1
  38   19   46 1
  39   20   21 ar
  40   20   25 ar
  41   21   22 ar
  42   21   47 1
  43   22   23 ar
  44   22   26 1
  45   23   24 ar
  46   23   29 1
  47   24   25 ar
  48   24   48 1
  49   25   49 1
  50   26   27 1
  51   26   50 1
  52   26   51 1
  53   27   28 1
  54   27   30 1
  55   28   29 1
  56   28   52 1
  57   28   53 1
  58   29   54 1
  59   29   55 1
  60   30   56 1
  61   30   57 1
  62   30   58 1

#	End of record

