#	Name: ASD04910056
#	Creating user name:	WinNT
#	Creation time:	15. 06. 2019 20:55

#	Modifying user name:	WinNT
#	Modification time:	15. 06. 2019 20:55

#	Program:	/corina/corina34_cracker 3.40 0067  02.08.2006

@<TRIPOS>MOLECULE
ASD04910056
  27   28    0    0    0
SMALL
NO_CHARGES


@<TRIPOS>ATOM
   1 C1            -0.0168     1.3842     0.0097 C.ar    
   2 C2             0.0021    -0.0041     0.0020 C.ar    
   3 C3             1.2131    -0.6821    -0.0132 C.ar    
   4 C4             2.3997     0.0239    -0.0204 C.ar    
   5 C5             2.3813     1.4126    -0.0127 C.ar    
   6 C6             1.1689     2.0907     0.0021 C.ar    
   7 N7             3.5827     2.1278    -0.0195 N.pl3   
   8 C8             1.2329    -2.1889    -0.0215 C.3     
   9 N9            -1.2042    -0.7223     0.0102 N.pl3   
  10 C10           -1.5467    -1.7341    -0.8281 C.2     
  11 N11           -2.7430    -2.1496    -0.5112 N.2     
  12 C12           -3.2029    -1.4316     0.5239 C.2     
  13 C13           -2.2559    -0.5385     0.8696 C.2     
  14 C14           -4.5447    -1.5992     1.1892 C.3     
  15 F15           -5.2048    -2.7019     0.6363 F       
  16 F16           -4.3626    -1.8044     2.5610 F       
  17 F17           -5.3122    -0.4471     0.9877 F       
  18 H18           -0.9593     1.9113     0.0170 H       
  19 H19            3.3420    -0.5038    -0.0315 H       
  20 H20            1.1542     3.1706     0.0077 H       
  21 H21            4.4291     1.6542    -0.0295 H       
  22 H22            3.5697     3.0977    -0.0141 H       
  23 H23            1.2278    -2.5467    -1.0511 H       
  24 H24            2.1325    -2.5432     0.4818 H       
  25 H25            0.3527    -2.5667     0.4988 H       
  26 H26           -0.9326    -2.1286    -1.6241 H       
  27 H27           -2.3166     0.1880     1.6665 H       
@<TRIPOS>BOND
   1    1    2 ar
   2    1    6 ar
   3    1   18 1
   4    2    3 ar
   5    2    9 1
   6    3    4 ar
   7    3    8 1
   8    4    5 ar
   9    4   19 1
  10    5    6 ar
  11    5    7 1
  12    6   20 1
  13    7   21 1
  14    7   22 1
  15    8   23 1
  16    8   24 1
  17    8   25 1
  18    9   10 1
  19    9   13 1
  20   10   11 2
  21   10   26 1
  22   11   12 1
  23   12   13 2
  24   12   14 1
  25   13   27 1
  26   14   15 1
  27   14   16 1
  28   14   17 1

#	End of record

