#	Name: ASD01810353
#	Creating user name:	WinNT
#	Creation time:	15. 06. 2019 19:24

#	Modifying user name:	WinNT
#	Modification time:	15. 06. 2019 19:24

#	Program:	/corina/corina34_cracker 3.40 0067  02.08.2006

@<TRIPOS>MOLECULE
ASD01810353
  39   41    0    0    0
SMALL
NO_CHARGES


@<TRIPOS>ATOM
   1 C1            -0.0158     1.3856     0.0847 C.ar    
   2 C2             0.0020    -0.0018     0.0545 C.ar    
   3 C3             1.1945    -0.6896     0.0122 C.ar    
   4 C4             2.4000     0.0080    -0.0007 C.ar    
   5 C5             2.3793     1.4125     0.0299 C.ar    
   6 C6             1.1639     2.0959     0.0727 C.ar    
   7 N7             3.5998    -0.6684    -0.0424 N.pl3   
   8 C8             4.7849    -0.0440    -0.0555 C.2     
   9 C9             4.8918     1.3310    -0.0280 C.2     
  10 C10            3.6627     2.1389     0.0158 C.2     
  11 O11            3.7037     3.3565     0.0415 O.2     
  12 C12            6.2127     1.9790    -0.0427 C.2     
  13 C13            3.5785    -2.1329    -0.0733 C.3     
  14 C14            3.5389    -2.6047    -1.5040 C.ar    
  15 C15            4.7185    -2.8376    -2.1868 C.ar    
  16 C16            4.6849    -3.2700    -3.4984 C.ar    
  17 C17            3.4663    -3.4706    -4.1304 C.ar    
  18 C18            2.2842    -3.2362    -3.4431 C.ar    
  19 C19            2.3231    -2.8092    -2.1299 C.ar    
  20 N20            6.3043     3.3202    -0.1377 N.am    
  21 O21            7.2221     1.3041     0.0308 O.2     
  22 O22            3.4306    -3.8956    -5.4207 O.3     
  23 C23            2.1408    -4.0808    -6.0074 C.3     
  24 H24           -0.9592     1.9107     0.1133 H       
  25 H25           -0.9296    -0.5482     0.0647 H       
  26 H26            1.1950    -1.7693    -0.0106 H       
  27 H27            1.1483     3.1755     0.0958 H       
  28 H28            5.6869    -0.6370    -0.0883 H       
  29 H29            4.4745    -2.5197     0.4122 H       
  30 H30            2.6952    -2.4946     0.4531 H       
  31 H31            5.6668    -2.6809    -1.6944 H       
  32 H32            5.6065    -3.4515    -4.0314 H       
  33 H33            1.3343    -3.3917    -3.9330 H       
  34 H34            1.4032    -2.6266    -1.5944 H       
  35 H35            5.5050     3.8525    -0.2741 H       
  36 H36            7.1696     3.7533    -0.0695 H       
  37 H37            1.5863    -4.8267    -5.4379 H       
  38 H38            1.5970    -3.1362    -5.9950 H       
  39 H39            2.2552    -4.4207    -7.0367 H       
@<TRIPOS>BOND
   1    1    2 ar
   2    1    6 ar
   3    1   24 1
   4    2    3 ar
   5    2   25 1
   6    3    4 ar
   7    3   26 1
   8    4    5 ar
   9    4    7 1
  10    5    6 ar
  11    5   10 1
  12    6   27 1
  13    7    8 1
  14    7   13 1
  15    8    9 2
  16    8   28 1
  17    9   10 1
  18    9   12 1
  19   10   11 2
  20   12   20 am
  21   12   21 2
  22   13   14 1
  23   13   29 1
  24   13   30 1
  25   14   15 ar
  26   14   19 ar
  27   15   16 ar
  28   15   31 1
  29   16   17 ar
  30   16   32 1
  31   17   22 1
  32   17   18 ar
  33   18   19 ar
  34   18   33 1
  35   19   34 1
  36   20   35 1
  37   20   36 1
  38   22   23 1
  39   23   37 1
  40   23   38 1
  41   23   39 1

#	End of record

