#	Name: ASD01910813
#	Creating user name:	WinNT
#	Creation time:	15. 06. 2019 19:56

#	Modifying user name:	WinNT
#	Modification time:	15. 06. 2019 19:56

#	Program:	/corina/corina34_cracker 3.40 0067  02.08.2006

@<TRIPOS>MOLECULE
ASD01910813
  24   25    0    0    0
SMALL
NO_CHARGES


@<TRIPOS>ATOM
   1 C1            -0.0167     1.3787     0.0096 C.ar    
   2 C2             0.0021    -0.0041     0.0020 C.ar    
   3 C3            -1.1965    -0.7223     0.0096 C.ar    
   4 C4            -2.4128    -0.0428     0.0249 C.ar    
   5 C5            -2.4259     1.3523     0.0325 C.ar    
   6 C6            -1.2201     2.0594     0.0305 C.ar    
   7 C7            -3.6718     2.0582     0.0477 C.1     
   8 C8            -4.6932     2.6368     0.0601 C.1     
   9 C9            -5.9390     3.3427     0.0753 C.ar    
  10 C10           -5.9446     4.7401     0.0829 C.ar    
  11 N11           -7.0823     2.6639     0.0766 N.ar    
  12 C12           -8.2481     3.2767     0.0899 C.ar    
  13 C13           -8.3255     4.6573     0.1032 C.ar    
  14 C14           -7.1563     5.4064     0.0971 C.ar    
  15 F15            1.1456     2.0673     0.0022 F       
  16 C16           -1.1748    -2.1541     0.0012 C.1     
  17 N17           -1.1577    -3.2899    -0.0054 N.1     
  18 H18            0.9453    -0.5300    -0.0102 H       
  19 H19           -3.3416    -0.5938     0.0304 H       
  20 H20           -1.2285     3.1394     0.0364 H       
  21 H21           -5.0161     5.2917     0.0781 H       
  22 H22           -9.1565     2.6925     0.0901 H       
  23 H23           -9.2871     5.1488     0.1140 H       
  24 H24           -7.1924     6.4858     0.1071 H       
@<TRIPOS>BOND
   1    1    2 ar
   2    1   15 1
   3    1    6 ar
   4    2    3 ar
   5    2   18 1
   6    3   16 1
   7    3    4 ar
   8    4    5 ar
   9    4   19 1
  10    5    6 ar
  11    5    7 1
  12    6   20 1
  13    7    8 3
  14    8    9 1
  15    9   10 ar
  16    9   11 ar
  17   10   14 ar
  18   10   21 1
  19   11   12 ar
  20   12   13 ar
  21   12   22 1
  22   13   14 ar
  23   13   23 1
  24   14   24 1
  25   16   17 3

#	End of record

