#	Name: ASD03091114
#	Creating user name:	WinNT
#	Creation time:	15. 06. 2019 20:30

#	Modifying user name:	WinNT
#	Modification time:	15. 06. 2019 20:30

#	Program:	/corina/corina34_cracker 3.40 0067  02.08.2006

@<TRIPOS>MOLECULE
ASD03091114
  55   57    0    0    0
SMALL
NO_CHARGES


@<TRIPOS>ATOM
   1 C1            -0.0125     1.4695     0.0752 C.2     
   2 C2             0.0046    -0.0042     0.0336 C.ar    
   3 C3             1.2183    -0.6914    -0.1192 C.ar    
   4 C4             1.2254    -2.0795    -0.1574 C.ar    
   5 C5             0.0430    -2.7818    -0.0459 C.ar    
   6 C6            -1.1639    -2.1068     0.1058 C.ar    
   7 C7            -1.1870    -0.7239     0.1520 C.ar    
   8 O8             1.0335     2.0895     0.0894 O.2     
   9 N9            -1.1874     2.1296     0.0918 N.am    
  10 C10           -1.2043     3.5939     0.1331 C.3     
  11 C11           -2.6527     4.0871     0.1446 C.3     
  12 C12           -2.6704     5.6163     0.1877 C.3     
  13 C13           -3.3658     3.6042    -1.1200 C.3     
  14 C14           -3.3701     3.5337     1.3775 C.3     
  15 O15           -4.0231     6.0769     0.1984 O.3     
  16 N16           -5.1821    -3.5240    -0.3417 N.3     
  17 C17           -4.7688    -2.6941     0.8002 C.3     
  18 C18           -3.4920    -1.9337     0.4775 C.3     
  19 N19           -2.3583    -2.8290     0.2180 N.3     
  20 C20           -2.6007    -3.6363    -0.9859 C.3     
  21 C21           -3.2064    -4.9805    -0.6106 C.3     
  22 C22           -4.6584    -4.8887    -0.1867 C.3     
  23 C23           -4.9361    -2.9721    -1.6567 C.3     
  24 C24           -3.4521    -2.8387    -1.9568 C.3     
  25 N25            2.4113     0.0160    -0.2326 N.pl3   
  26 H26            2.1584    -2.6106    -0.2749 H       
  27 H27            0.0545    -3.8613    -0.0770 H       
  28 H28           -2.1246    -0.2020     0.2743 H       
  29 H29           -2.0217     1.6351     0.0765 H       
  30 H30           -0.6963     3.9379     1.0340 H       
  31 H31           -0.6932     3.9881    -0.7452 H       
  32 H32           -2.1623     5.9603     1.0886 H       
  33 H33           -2.1593     6.0105    -0.6906 H       
  34 H34           -3.3532     2.5147    -1.1507 H       
  35 H35           -4.3976     3.9555    -1.1118 H       
  36 H36           -2.8547     3.9984    -1.9983 H       
  37 H37           -2.8620     3.8777     2.2784 H       
  38 H38           -4.4019     3.8850     1.3856 H       
  39 H39           -3.3574     2.4442     1.3468 H       
  40 H40           -4.1106     7.0396     0.2254 H       
  41 H41           -5.5614    -1.9828     1.0327 H       
  42 H42           -4.5965    -3.3341     1.6656 H       
  43 H43           -3.6625    -1.3154    -0.4039 H       
  44 H44           -3.2449    -1.2857     1.3184 H       
  45 H45           -1.6403    -3.8203    -1.4674 H       
  46 H46           -3.1346    -5.6481    -1.4693 H       
  47 H47           -2.6292    -5.4071     0.2096 H       
  48 H48           -4.7434    -5.1859     0.8586 H       
  49 H49           -5.2513    -5.5689    -0.7981 H       
  50 H50           -5.3908    -3.6226    -2.4038 H       
  51 H51           -5.3992    -1.9873    -1.7191 H       
  52 H52           -3.1710    -1.7875    -1.8937 H       
  53 H53           -3.2621    -3.1944    -2.9694 H       
  54 H54            2.3973     0.9839    -0.2947 H       
  55 H55            3.2570    -0.4589    -0.2495 H       
@<TRIPOS>BOND
   1    1    2 1
   2    1    8 2
   3    1    9 am
   4    2    3 ar
   5    2    7 ar
   6    3    4 ar
   7    3   25 1
   8    4    5 ar
   9    4   26 1
  10    5    6 ar
  11    5   27 1
  12    6    7 ar
  13    6   19 1
  14    7   28 1
  15    9   10 1
  16    9   29 1
  17   10   11 1
  18   10   30 1
  19   10   31 1
  20   11   12 1
  21   11   13 1
  22   11   14 1
  23   12   15 1
  24   12   32 1
  25   12   33 1
  26   13   34 1
  27   13   35 1
  28   13   36 1
  29   14   37 1
  30   14   38 1
  31   14   39 1
  32   15   40 1
  33   16   17 1
  34   16   22 1
  35   16   23 1
  36   17   18 1
  37   17   41 1
  38   17   42 1
  39   18   19 1
  40   18   43 1
  41   18   44 1
  42   19   20 1
  43   20   21 1
  44   20   24 1
  45   20   45 1
  46   21   22 1
  47   21   46 1
  48   21   47 1
  49   22   48 1
  50   22   49 1
  51   23   24 1
  52   23   50 1
  53   23   51 1
  54   24   52 1
  55   24   53 1
  56   25   54 1
  57   25   55 1

#	End of record

