#	Name: ASD01151005
#	Creating user name:	WinNT
#	Creation time:	15. 06. 2019 19:05

#	Modifying user name:	WinNT
#	Modification time:	15. 06. 2019 19:05

#	Program:	/corina/corina34_cracker 3.40 0067  02.08.2006

@<TRIPOS>MOLECULE
ASD01151005
  19   18    0    0    0
SMALL
NO_CHARGES


@<TRIPOS>ATOM
   1 C1            -0.0936     1.5956    -0.2270 C.3     
   2 C2            -0.0405     0.0697    -0.1277 C.3     
   3 O3             0.6460    -0.4673    -1.2890 O.3     
   4 C4             0.7784    -1.8037    -1.3560 C.2     
   5 C5             1.4797    -2.4334    -2.5319 C.3     
   6 N6             0.2994    -2.5558    -0.4022 N.2     
   7 C7             0.5452    -2.4323    -3.7434 C.3     
   8 C8             0.3335    -3.9051    -0.5216 C.1     
   9 N9             0.3621    -5.0363    -0.6218 N.1     
  10 H10            0.9208     1.9927    -0.2653 H       
  11 H11           -0.6304     1.8824    -1.1312 H       
  12 H12           -0.6089     1.9987     0.6448 H       
  13 H13            0.4963    -0.2171     0.7765 H       
  14 H14           -1.0549    -0.3274    -0.0894 H       
  15 H15            2.3790    -1.8638    -2.7662 H       
  16 H16            1.7533    -3.4592    -2.2850 H       
  17 H17           -0.3130    -3.0730    -3.5408 H       
  18 H18            0.2022    -1.4159    -3.9367 H       
  19 H19            1.0807    -2.8071    -4.6156 H       
@<TRIPOS>BOND
   1    1    2 1
   2    1   10 1
   3    1   11 1
   4    1   12 1
   5    2    3 1
   6    2   13 1
   7    2   14 1
   8    3    4 1
   9    4    5 1
  10    4    6 2
  11    5    7 1
  12    5   15 1
  13    5   16 1
  14    6    8 1
  15    7   17 1
  16    7   18 1
  17    7   19 1
  18    8    9 3

#	End of record

