#	Name: ASD05730015
#	Creating user name:	WinNT
#	Creation time:	15. 06. 2019 21:02

#	Modifying user name:	WinNT
#	Modification time:	15. 06. 2019 21:02

#	Program:	/corina/corina34_cracker 3.40 0067  02.08.2006

@<TRIPOS>MOLECULE
ASD05730015
  53   57    0    0    0
SMALL
NO_CHARGES


@<TRIPOS>ATOM
   1 C1            -0.0226     1.3951    -0.0135 C.ar    
   2 C2            -0.0300     0.0136    -0.2158 C.ar    
   3 N3             1.0541    -0.6300    -0.6180 N.ar    
   4 C4             2.1932     0.0094    -0.8461 C.ar    
   5 C5             2.2642     1.4030    -0.6601 C.ar    
   6 C6             1.1278     2.1027    -0.2347 C.ar    
   7 N7             3.3111    -0.6758    -1.2636 N.am    
   8 C8             4.4724    -0.0427    -1.4980 C.2     
   9 C9             4.6074     1.3507    -1.3296 C.2     
  10 C10            3.5337     2.0960    -0.9167 C.2     
  11 N11           -1.1983    -0.6994     0.0102 N.pl3   
  12 C12           -1.1996    -2.0830    -0.1020 C.ar    
  13 N13           -2.3456    -2.7376     0.0078 N.ar    
  14 C14           -2.3854    -4.0556    -0.0935 C.ar    
  15 C15           -1.2023    -4.7534    -0.3185 C.ar    
  16 C16           -0.0177    -4.0308    -0.4283 C.ar    
  17 N17           -0.0557    -2.7132    -0.3214 N.ar    
  18 N18           -1.2036    -6.1507    -0.4314 N.am    
  19 O19            5.4367    -0.6911    -1.8661 O.2     
  20 C20            3.2333    -2.1260    -1.4559 C.3     
  21 C21           -2.3031    -6.9182    -0.3373 C.2     
  22 C22           -1.9348    -8.3767    -0.4974 C.3     
  23 C23           -0.4033    -8.4065    -0.2860 C.3     
  24 C24           -0.0055    -6.9631    -0.6736 C.3     
  25 O25           -3.4270    -6.5019    -0.1508 O.2     
  26 C26            2.8238    -2.4232    -2.8755 C.ar    
  27 C27            3.7882    -2.5775    -3.8541 C.ar    
  28 C28            3.4154    -2.8500    -5.1561 C.ar    
  29 C29            2.0720    -2.9687    -5.4813 C.ar    
  30 C30            1.1062    -2.8134    -4.4975 C.ar    
  31 C31            1.4844    -2.5466    -3.1959 C.ar    
  32 O32            1.7027    -3.2362    -6.7615 O.3     
  33 C33            3.6468     3.5125    -0.7393 C.1     
  34 N34            3.7365     4.6362    -0.5986 N.1     
  35 H35           -0.9193     1.9022     0.3108 H       
  36 H36            1.1585     3.1719    -0.0857 H       
  37 H37            5.5551     1.8300    -1.5257 H       
  38 H38           -2.0142    -0.2312     0.2466 H       
  39 H39           -3.3232    -4.5834    -0.0026 H       
  40 H40            0.9192    -4.5390    -0.6025 H       
  41 H41            4.2082    -2.5716    -1.2582 H       
  42 H42            2.4967    -2.5445    -0.7701 H       
  43 H43           -2.4360    -8.9819     0.2581 H       
  44 H44           -2.1887    -8.7267    -1.4979 H       
  45 H45           -0.1572    -8.6171     0.7547 H       
  46 H46            0.0682    -9.1302    -0.9509 H       
  47 H47            0.2807    -6.9200    -1.7245 H       
  48 H48            0.8138    -6.6157    -0.0443 H       
  49 H49            4.8339    -2.4847    -3.6005 H       
  50 H50            4.1691    -2.9701    -5.9202 H       
  51 H51            0.0597    -2.9053    -4.7482 H       
  52 H52            0.7330    -2.4256    -2.4297 H       
  53 H53            1.6310    -4.1797    -6.9612 H       
@<TRIPOS>BOND
   1    1    2 ar
   2    1    6 ar
   3    1   35 1
   4    2    3 ar
   5    2   11 1
   6    3    4 ar
   7    4    5 ar
   8    4    7 1
   9    5    6 ar
  10    5   10 1
  11    6   36 1
  12    7    8 am
  13    7   20 1
  14    8    9 1
  15    8   19 2
  16    9   10 2
  17    9   37 1
  18   10   33 1
  19   11   12 1
  20   11   38 1
  21   12   13 ar
  22   12   17 ar
  23   13   14 ar
  24   14   15 ar
  25   14   39 1
  26   15   16 ar
  27   15   18 1
  28   16   17 ar
  29   16   40 1
  30   18   21 am
  31   18   24 1
  32   20   26 1
  33   20   41 1
  34   20   42 1
  35   21   22 1
  36   21   25 2
  37   22   23 1
  38   22   43 1
  39   22   44 1
  40   23   24 1
  41   23   45 1
  42   23   46 1
  43   24   47 1
  44   24   48 1
  45   26   27 ar
  46   26   31 ar
  47   27   28 ar
  48   27   49 1
  49   28   29 ar
  50   28   50 1
  51   29   30 ar
  52   29   32 1
  53   30   31 ar
  54   30   51 1
  55   31   52 1
  56   32   53 1
  57   33   34 3

#	End of record

