#	Name: ASD03740035
#	Creating user name:	WinNT
#	Creation time:	15. 06. 2019 20:46

#	Modifying user name:	WinNT
#	Modification time:	15. 06. 2019 20:46

#	Program:	/corina/corina34_cracker 3.40 0067  02.08.2006

@<TRIPOS>MOLECULE
ASD03740035
  28   29    0    0    0
SMALL
NO_CHARGES


@<TRIPOS>ATOM
   1 O1            -0.0164     1.3546     0.0095 O.3     
   2 C2            -0.3973     1.0999    -1.2698 C.ar    
   3 C3             1.0403     2.1859     0.2069 C.ar    
   4 C4             0.3508     1.5934    -2.3291 C.ar    
   5 C5            -0.0384     1.3326    -3.6286 C.ar    
   6 C6            -1.1723     0.5804    -3.8742 C.ar    
   7 C7            -1.9195     0.0873    -2.8204 C.ar    
   8 C8            -1.5318     0.3409    -1.5190 C.ar    
   9 C9             0.8370     3.5540     0.3183 C.ar    
  10 C10            1.9128     4.3968     0.5194 C.ar    
  11 C11            3.1914     3.8782     0.6099 C.ar    
  12 C12            3.3967     2.5153     0.4993 C.ar    
  13 C13            2.3238     1.6676     0.3033 C.ar    
  14 C14            4.3632     4.8001     0.8289 C.3     
  15 N15            4.5929     4.9661     2.2703 N.3     
  16 H16            1.2364     2.1813    -2.1377 H       
  17 H17            0.5434     1.7168    -4.4534 H       
  18 H18           -1.4750     0.3779    -4.8909 H       
  19 H19           -2.8048    -0.4999    -3.0150 H       
  20 H20           -2.1156    -0.0447    -0.6963 H       
  21 H21           -0.1614     3.9596     0.2473 H       
  22 H22            1.7552     5.4617     0.6058 H       
  23 H23            4.3964     2.1128     0.5703 H       
  24 H24            2.4847     0.6031     0.2174 H       
  25 H25            5.2529     4.3731     0.3660 H       
  26 H26            4.1507     5.7707     0.3806 H       
  27 H27            5.3743     5.5806     2.4435 H       
  28 H28            3.7608     5.3002     2.7329 H       
@<TRIPOS>BOND
   1    1    2 1
   2    1    3 1
   3    2    4 ar
   4    2    8 ar
   5    3    9 ar
   6    3   13 ar
   7    4    5 ar
   8    4   16 1
   9    5    6 ar
  10    5   17 1
  11    6    7 ar
  12    6   18 1
  13    7    8 ar
  14    7   19 1
  15    8   20 1
  16    9   10 ar
  17    9   21 1
  18   10   11 ar
  19   10   22 1
  20   11   12 ar
  21   11   14 1
  22   12   13 ar
  23   12   23 1
  24   13   24 1
  25   14   15 1
  26   14   25 1
  27   14   26 1
  28   15   27 1
  29   15   28 1

#	End of record

