#	Name: ASD01884418
#	Creating user name:	WinNT
#	Creation time:	15. 06. 2019 19:48

#	Modifying user name:	WinNT
#	Modification time:	15. 06. 2019 19:48

#	Program:	/corina/corina34_cracker 3.40 0067  02.08.2006

@<TRIPOS>MOLECULE
ASD01884418
  45   47    0    0    0
SMALL
NO_CHARGES


@<TRIPOS>ATOM
   1 C1            -1.0835     1.0781    -0.0230 C.2     
   2 C2            -0.8641    -0.2646     0.0366 C.2     
   3 C3             0.4207    -0.7657    -0.2650 C.2     
   4 C4             1.4195     0.0979    -0.6103 C.2     
   5 N5             1.1878     1.4331    -0.6655 N.am    
   6 C6            -0.0286     1.9353    -0.3828 C.2     
   7 C7             0.6842    -2.2249    -0.2065 C.ar    
   8 C8             2.2759     2.3408    -1.0377 C.3     
   9 O9            -0.2166     3.1400    -0.4386 O.2     
  10 C10            2.2816     2.5317    -2.5325 C.ar    
  11 C11            1.5447     3.5536    -3.1016 C.ar    
  12 C12            1.5499     3.7287    -4.4727 C.ar    
  13 C13            2.2923     2.8823    -5.2748 C.ar    
  14 C14            3.0299     1.8611    -4.7057 C.ar    
  15 C15            3.0281     1.6886    -3.3342 C.ar    
  16 C16            0.6076    -2.8998     1.0102 C.ar    
  17 C17            1.0032    -2.9240    -1.3693 C.ar    
  18 C18            1.2472    -4.2804    -1.3124 C.ar    
  19 C19            1.1756    -4.9498    -0.0988 C.ar    
  20 C20            0.8528    -4.2574     1.0612 C.ar    
  21 Cl21           0.7643    -5.0984     2.5773 Cl      
  22 O22            1.4166    -6.2865    -0.0460 O.3     
  23 C23            1.8546    -6.9148    -1.2524 C.3     
  24 C24            2.6482    -8.1774    -0.9108 C.3     
  25 C25            0.6389    -7.2908    -2.1020 C.3     
  26 H26           -2.0605     1.4808     0.1998 H       
  27 H27           -1.6629    -0.9375     0.3115 H       
  28 H28            2.4026    -0.2850    -0.8412 H       
  29 H29            2.1289     3.3039    -0.5489 H       
  30 H30            3.2283     1.9148    -0.7221 H       
  31 H31            0.9647     4.2148    -2.4749 H       
  32 H32            0.9737     4.5266    -4.9174 H       
  33 H33            2.2958     3.0187    -6.3462 H       
  34 H34            3.6097     1.1996    -5.3324 H       
  35 H35            3.6044     0.8907    -2.8895 H       
  36 H36            0.3570    -2.3614     1.9123 H       
  37 H37            1.0588    -2.4041    -2.3142 H       
  38 H38            1.4940    -4.8223    -2.2134 H       
  39 H39            2.4892    -6.2267    -1.8108 H       
  40 H40            2.0135    -8.8656    -0.3524 H       
  41 H41            2.9823    -8.6567    -1.8310 H       
  42 H42            3.5143    -7.9096    -0.3055 H       
  43 H43            0.0043    -7.9789    -1.5437 H       
  44 H44            0.0735    -6.3913    -2.3454 H       
  45 H45            0.9730    -7.7701    -3.0222 H       
@<TRIPOS>BOND
   1    1    2 2
   2    1    6 1
   3    1   26 1
   4    2    3 1
   5    2   27 1
   6    3    4 2
   7    3    7 1
   8    4    5 1
   9    4   28 1
  10    5    6 am
  11    5    8 1
  12    6    9 2
  13    7   16 ar
  14    7   17 ar
  15    8   10 1
  16    8   29 1
  17    8   30 1
  18   10   11 ar
  19   10   15 ar
  20   11   12 ar
  21   11   31 1
  22   12   13 ar
  23   12   32 1
  24   13   14 ar
  25   13   33 1
  26   14   15 ar
  27   14   34 1
  28   15   35 1
  29   16   20 ar
  30   16   36 1
  31   17   18 ar
  32   17   37 1
  33   18   19 ar
  34   18   38 1
  35   19   20 ar
  36   19   22 1
  37   20   21 1
  38   22   23 1
  39   23   24 1
  40   23   25 1
  41   23   39 1
  42   24   40 1
  43   24   41 1
  44   24   42 1
  45   25   43 1
  46   25   44 1
  47   25   45 1

#	End of record

