#	Name: ASD01814415
#	Creating user name:	WinNT
#	Creation time:	15. 06. 2019 19:32

#	Modifying user name:	WinNT
#	Modification time:	15. 06. 2019 19:32

#	Program:	/corina/corina34_cracker 3.40 0067  02.08.2006

@<TRIPOS>MOLECULE
ASD01814415
  49   54    0    0    0
SMALL
NO_CHARGES


@<TRIPOS>ATOM
   1 C1            -0.0167     1.3819     0.0096 C.ar    
   2 C2             0.0021    -0.0041     0.0020 C.ar    
   3 C3             1.1970    -0.6935    -0.0131 C.ar    
   4 C4             2.3990     0.0035    -0.0208 C.ar    
   5 C5             2.3751     1.4118    -0.0130 C.ar    
   6 C6             1.1661     2.0940     0.0022 C.ar    
   7 N7             3.6102    -0.6577    -0.0354 N.pl3   
   8 N8             4.7455    -0.0610    -0.0422 N.2     
   9 C9             4.8827     1.2395    -0.0364 C.2     
  10 C10            3.6768     2.1037    -0.0217 C.2     
  11 C11            6.0122     2.1721    -0.0410 C.2     
  12 N12            5.4770     3.4118    -0.0294 N.am    
  13 N13            4.0818     3.3389    -0.0182 N.2     
  14 C14            3.5985    -2.1226    -0.0431 C.3     
  15 C15            3.5816    -2.6173    -1.4665 C.ar    
  16 C16            4.7720    -2.8533    -2.1292 C.ar    
  17 C17            4.7597    -3.3062    -3.4339 C.ar    
  18 C18            3.5504    -3.5251    -4.0799 C.ar    
  19 C19            2.3567    -3.2877    -3.4117 C.ar    
  20 C20            2.3755    -2.8398    -2.1053 C.ar    
  21 O21            7.1977     1.8863    -0.0522 O.2     
  22 C22            6.2140     4.5991    -0.0284 C.ar    
  23 C23            6.6701     5.1584    -1.2211 C.ar    
  24 C24            7.3946     6.3314    -1.1794 C.ar    
  25 N25            7.6586     6.9247    -0.0303 N.ar    
  26 C26            7.2453     6.4284     1.1226 C.ar    
  27 C27            6.5072     5.2578     1.1653 C.ar    
  28 N28            3.5346    -3.9844    -5.4043 N.pl3   
  29 C29            2.4325    -4.2370    -6.1459 C.2     
  30 C30            2.8438    -4.6610    -7.3634 C.2     
  31 C31            4.2430    -4.6683    -7.3670 C.2     
  32 N32            4.6578    -4.2573    -6.1957 N.2     
  33 F33            6.0872     4.7549     2.3468 F       
  34 F34            7.5416     7.0736     2.2720 F       
  35 H35           -0.9605     1.9069     0.0169 H       
  36 H36           -0.9294    -0.5505     0.0083 H       
  37 H37            1.1981    -1.7735    -0.0185 H       
  38 H38            1.1510     3.1739     0.0077 H       
  39 H39            4.4903    -2.4957     0.4606 H       
  40 H40            2.7104    -2.4816     0.4769 H       
  41 H41            5.7124    -2.6828    -1.6262 H       
  42 H42            5.6898    -3.4897    -3.9513 H       
  43 H43            1.4145    -3.4568    -3.9117 H       
  44 H44            1.4473    -2.6549    -1.5850 H       
  45 H45            6.4592     4.6793    -2.1658 H       
  46 H46            7.7510     6.7702    -2.0996 H       
  47 H47            1.4080    -4.1216    -5.8242 H       
  48 H48            2.2048    -4.9439    -8.1869 H       
  49 H49            4.8723    -4.9586    -8.1952 H       
@<TRIPOS>BOND
   1    1    2 ar
   2    1    6 ar
   3    1   35 1
   4    2    3 ar
   5    2   36 1
   6    3    4 ar
   7    3   37 1
   8    4    5 ar
   9    4    7 1
  10    5    6 ar
  11    5   10 1
  12    6   38 1
  13    7    8 1
  14    7   14 1
  15    8    9 2
  16    9   10 1
  17    9   11 1
  18   10   13 2
  19   11   12 am
  20   11   21 2
  21   12   13 1
  22   12   22 1
  23   14   15 1
  24   14   39 1
  25   14   40 1
  26   15   16 ar
  27   15   20 ar
  28   16   17 ar
  29   16   41 1
  30   17   18 ar
  31   17   42 1
  32   18   19 ar
  33   18   28 1
  34   19   20 ar
  35   19   43 1
  36   20   44 1
  37   22   23 ar
  38   22   27 ar
  39   23   24 ar
  40   23   45 1
  41   24   25 ar
  42   24   46 1
  43   25   26 ar
  44   26   27 ar
  45   26   34 1
  46   27   33 1
  47   28   29 1
  48   28   32 1
  49   29   30 2
  50   29   47 1
  51   30   31 1
  52   30   48 1
  53   31   32 2
  54   31   49 1

#	End of record

