#	Name: ASD00311198
#	Creating user name:	WinNT
#	Creation time:	15. 06. 2019 18:34

#	Modifying user name:	WinNT
#	Modification time:	15. 06. 2019 18:34

#	Program:	/corina/corina34_cracker 3.40 0067  02.08.2006

@<TRIPOS>MOLECULE
ASD00311198
  40   43    0    0    0
SMALL
NO_CHARGES


@<TRIPOS>ATOM
   1 C1            -0.0167     1.3773     0.0096 C.2     
   2 C2             0.0021    -0.0041     0.0020 C.2     
   3 C3             1.2583    -0.6767    -0.0131 C.2     
   4 C4             2.4313     0.0669    -0.0199 C.2     
   5 C5             2.3577     1.4744    -0.0117 C.2     
   6 N6             1.1653     2.0898     0.0022 N.am    
   7 C7            -1.3438    -0.5757     0.0118 C.2     
   8 C8            -2.3240     0.3275     0.0260 C.2     
   9 S9            -1.6789     1.9569     0.0358 S.3     
  10 O10            3.3829     2.1363    -0.0171 O.2     
  11 O11            1.3080    -2.0294    -0.0204 O.3     
  12 C12            3.7475    -0.6130    -0.0352 C.ar    
  13 C13            4.5933    -0.4755    -1.1355 C.ar    
  14 C14            5.8180    -1.1107    -1.1450 C.ar    
  15 C15            6.2080    -1.8844    -0.0639 C.ar    
  16 C16            5.3712    -2.0245     1.0314 C.ar    
  17 C17            4.1473    -1.3879     1.0532 C.ar    
  18 F18            7.4081    -2.5048    -0.0780 F       
  19 C19           -1.5967    -2.0356     0.0059 C.ar    
  20 C20           -1.7282    -2.7206    -1.2061 C.ar    
  21 C21           -1.9648    -4.0865    -1.2021 C.ar    
  22 C22           -2.0705    -4.7682    -0.0014 C.ar    
  23 C23           -1.9406    -4.0923     1.1985 C.ar    
  24 C24           -1.6988    -2.7331     1.2083 C.ar    
  25 C25           -2.3287    -6.2530    -0.0019 C.3     
  26 O26           -1.6250    -2.0493    -2.3840 O.3     
  27 F27           -2.0926    -4.7529    -2.3704 F       
  28 F28           -3.6410     0.0265     0.0370 F       
  29 H29            1.1333     3.0593     0.0077 H       
  30 H30            2.2051    -2.3900    -0.0306 H       
  31 H31            4.2898     0.1269    -1.9790 H       
  32 H32            6.4736    -1.0048    -1.9966 H       
  33 H33            5.6794    -2.6293     1.8714 H       
  34 H34            3.4979    -1.4935     1.9097 H       
  35 H35           -2.0247    -4.6305     2.1310 H       
  36 H36           -1.5932    -2.2098     2.1472 H       
  37 H37           -1.3785    -6.7870    -0.0128 H       
  38 H38           -2.8879    -6.5248     0.8934 H       
  39 H39           -2.9063    -6.5210    -0.8865 H       
  40 H40           -0.7247    -2.0055    -2.7342 H       
@<TRIPOS>BOND
   1    1    2 2
   2    1    6 1
   3    1    9 1
   4    2    3 1
   5    2    7 1
   6    3    4 2
   7    3   11 1
   8    4    5 1
   9    4   12 1
  10    5    6 am
  11    5   10 2
  12    6   29 1
  13    7    8 2
  14    7   19 1
  15    8    9 1
  16    8   28 1
  17   11   30 1
  18   12   13 ar
  19   12   17 ar
  20   13   14 ar
  21   13   31 1
  22   14   15 ar
  23   14   32 1
  24   15   16 ar
  25   15   18 1
  26   16   17 ar
  27   16   33 1
  28   17   34 1
  29   19   20 ar
  30   19   24 ar
  31   20   21 ar
  32   20   26 1
  33   21   22 ar
  34   21   27 1
  35   22   23 ar
  36   22   25 1
  37   23   24 ar
  38   23   35 1
  39   24   36 1
  40   25   37 1
  41   25   38 1
  42   25   39 1
  43   26   40 1

#	End of record

