#	Name: ASD01410875
#	Creating user name:	WinNT
#	Creation time:	15. 06. 2019 19:18

#	Modifying user name:	WinNT
#	Modification time:	15. 06. 2019 19:18

#	Program:	/corina/corina34_cracker 3.40 0067  02.08.2006

@<TRIPOS>MOLECULE
ASD01410875
 116  122    0    0    0
SMALL
NO_CHARGES


@<TRIPOS>ATOM
   1 C1             1.9026     0.8881     2.9229 C.3     
   2 C2             1.1431    -0.4296     2.6437 C.3     
   3 N3             1.1458    -1.1388     3.9398 N.am    
   4 C4             1.2364    -0.1424     5.0142 C.3     
   5 C5             1.3871     1.2410     4.3448 C.3     
   6 O6             3.3157     0.6752     2.9272 O.3     
   7 C7            -0.0177    -0.1738     5.8493 C.2     
   8 O8            -0.9073    -0.9524     5.5785 O.2     
   9 N9            -0.1506     0.6634     6.8972 N.am    
  10 C10            1.9360    -1.2824     1.6471 C.3     
  11 C11            1.2374    -3.3890     2.8945 C.3     
  12 C12            1.1115    -2.4747     4.0806 C.2     
  13 O13            0.9769    -2.9523     5.1873 O.2     
  14 C14           -0.0012    -4.2839     2.8183 C.3     
  15 C15           -1.1397    -3.5219     2.1369 C.3     
  16 C16           -1.4178     0.7243     7.6299 C.3     
  17 C17           -2.6238     1.1080     6.8118 C.2     
  18 N18           -2.4750     1.4766     5.5239 N.am    
  19 O19           -3.7283     1.0851     7.3122 O.2     
  20 S20           -3.7828     2.0088     4.6586 S.o2    
  21 C21           -4.2715     3.5509     5.4795 C.3     
  22 C22           -1.6253    -0.2781     8.7669 C.3     
  23 C23           -1.3709     1.1976     9.0841 C.3     
  24 C24           -5.5425     4.2432     4.9835 C.3     
  25 C25           -5.5401     3.5249     6.3343 C.3     
  26 O26           -3.2612     2.2766     3.3643 O.2     
  27 O27           -4.7676     1.0040     4.8582 O.2     
  28 C28           -3.0201    -0.8059     8.9834 C.2     
  29 C29           -3.2558    -2.0912     8.8912 C.2     
  30 C30            4.0951     1.7078     2.5206 C.ar    
  31 C31            5.5054     1.6102     2.5507 C.ar    
  32 C32            3.5340     2.8827     2.0600 C.ar    
  33 C33            4.3644     3.9310     1.6472 C.ar    
  34 N34            5.6798     3.8270     1.6863 N.ar    
  35 C35            6.2810     2.7135     2.1166 C.ar    
  36 C36            3.7517     5.1888     1.1535 C.ar    
  37 C37            7.6835     2.6200     2.1517 C.ar    
  38 C38            8.2769     1.4611     2.5996 C.ar    
  39 C39            7.5009     0.3767     3.0192 C.ar    
  40 C40            6.1417     0.4443     3.0016 C.ar    
  41 Cl41           8.6611     3.9575     1.6328 Cl      
  42 O42            9.6322     1.3703     2.6336 O.3     
  43 C43           10.1884     0.1425     3.1082 C.3     
  44 C44            0.3267    -5.5409     2.0100 C.3     
  45 C45            4.5680     6.2387     0.7400 C.ar    
  46 N46            2.4306     5.3020     1.1044 N.ar    
  47 C47            1.8474     6.4007     0.6725 C.ar    
  48 C48            2.5973     7.4846     0.2512 C.ar    
  49 C49            3.9817     7.4065     0.2812 C.ar    
  50 C50            0.3428     6.4785     0.6360 C.3     
  51 C51           -0.1646     7.1450     1.9163 C.3     
  52 C52           -0.0960     7.3024    -0.5762 C.3     
  53 C53           -0.4293    -4.6836     4.2317 C.3     
  54 N54            1.3577    -2.6322     1.6503 N.am    
  55 O55            0.9192    -2.4423    -0.6334 O.3     
  56 C56            0.4498    -3.0959    -1.8420 C.3     
  57 C57           -0.9920    -3.5665    -1.6403 C.3     
  58 C58            0.5055    -2.1092    -3.0100 C.3     
  59 C59            1.3413    -4.3008    -2.1493 C.3     
  60 C60            0.9334    -3.1786     0.4936 C.2     
  61 O61            0.5636    -4.3358     0.4680 O.2     
  62 H62            1.6272     1.6590     2.2032 H       
  63 H63            0.1275    -0.2368     2.2979 H       
  64 H64            2.1055    -0.3487     5.6388 H       
  65 H65            2.1164     1.8501     4.8789 H       
  66 H66            0.4246     1.7497     4.2905 H       
  67 H67            0.5927     1.2255     7.1662 H       
  68 H68            1.8596    -0.8506     0.6492 H       
  69 H69            2.9818    -1.3284     1.9509 H       
  70 H70            2.1219    -4.0140     3.0181 H       
  71 H71           -0.8347    -3.2371     1.1299 H       
  72 H72           -2.0221    -4.1595     2.0826 H       
  73 H73           -1.3733    -2.6264     2.7127 H       
  74 H74           -1.6019     1.4301     5.1039 H       
  75 H75           -3.4511     4.1853     5.8150 H       
  76 H76           -0.8190    -0.9830     8.9698 H       
  77 H77           -0.3973     1.4634     9.4958 H       
  78 H78           -2.2125     1.7862     9.4492 H       
  79 H79           -5.5585     5.3331     4.9930 H       
  80 H80           -6.0851     3.7721     4.1639 H       
  81 H81           -6.0811     2.5811     6.4035 H       
  82 H82           -5.5545     4.1421     7.2326 H       
  83 H83           -3.8255    -0.1244     9.2146 H       
  84 H84           -2.4505    -2.7727     8.6601 H       
  85 H85           -4.2555    -2.4694     9.0464 H       
  86 H86            2.4604     2.9918     2.0182 H       
  87 H87            7.9858    -0.5237     3.3664 H       
  88 H88            5.5540    -0.4007     3.3284 H       
  89 H89            9.8558    -0.6772     2.4713 H       
  90 H90           11.2764     0.2031     3.0839 H       
  91 H91            9.8571    -0.0350     4.1314 H       
  92 H92            1.4021    -5.5932     1.8399 H       
  93 H93            0.0029    -6.4229     2.5626 H       
  94 H94           -0.1913    -5.5020     1.0517 H       
  95 H95            5.6432     6.1436     0.7771 H       
  96 H96            2.1093     8.3812    -0.1016 H       
  97 H97            4.5889     8.2390    -0.0424 H       
  98 H98           -0.0713     5.4730     0.5611 H       
  99 H99           -1.2528     7.2013     1.8900 H       
 100 H100           0.1481     6.5580     2.7800 H       
 101 H101           0.2495     8.1505     1.9912 H       
 102 H102           0.2655     6.8276    -1.4884 H       
 103 H103          -1.1842     7.3587    -0.6026 H       
 104 H104           0.3181     8.3079    -0.5013 H       
 105 H105          -0.6630    -3.7881     4.8075 H       
 106 H106          -1.3118    -5.3212     4.1774 H       
 107 H107           0.3817    -5.2264     4.7171 H       
 108 H108          -1.6271    -2.7081    -1.4214 H       
 109 H109          -1.3443    -4.0572    -2.5476 H       
 110 H110          -1.0317    -4.2694    -0.8082 H       
 111 H111           1.5327    -1.7739    -3.1538 H       
 112 H112           0.1532    -2.5999    -3.9173 H       
 113 H113          -0.1295    -1.2508    -2.7911 H       
 114 H114           1.3016    -5.0038    -1.3173 H       
 115 H115           0.9889    -4.7915    -3.0566 H       
 116 H116           2.3684    -3.9656    -2.2931 H       
@<TRIPOS>BOND
   1    1    2 1
   2    1    6 1
   3    1    5 1
   4    1   62 1
   5    2    3 1
   6    2   10 1
   7    2   63 1
   8    3    4 1
   9    3   12 am
  10    4    5 1
  11    4    7 1
  12    4   64 1
  13    5   65 1
  14    5   66 1
  15    6   30 1
  16    7    8 2
  17    7    9 am
  18    9   16 1
  19    9   67 1
  20   10   54 1
  21   10   68 1
  22   10   69 1
  23   11   12 1
  24   11   14 1
  25   11   54 1
  26   11   70 1
  27   12   13 2
  28   14   15 1
  29   14   44 1
  30   14   53 1
  31   15   71 1
  32   15   72 1
  33   15   73 1
  34   16   17 1
  35   16   22 1
  36   16   23 1
  37   17   18 am
  38   17   19 2
  39   18   20 am
  40   18   74 1
  41   20   21 1
  42   20   26 2
  43   20   27 2
  44   21   24 1
  45   21   25 1
  46   21   75 1
  47   22   23 1
  48   22   28 1
  49   22   76 1
  50   23   77 1
  51   23   78 1
  52   24   25 1
  53   24   79 1
  54   24   80 1
  55   25   81 1
  56   25   82 1
  57   28   29 2
  58   28   83 1
  59   29   84 1
  60   29   85 1
  61   30   31 ar
  62   30   32 ar
  63   31   35 ar
  64   31   40 ar
  65   32   33 ar
  66   32   86 1
  67   33   34 ar
  68   33   36 1
  69   34   35 ar
  70   35   37 ar
  71   36   45 ar
  72   36   46 ar
  73   37   38 ar
  74   37   41 1
  75   38   39 ar
  76   38   42 1
  77   39   40 ar
  78   39   87 1
  79   40   88 1
  80   42   43 1
  81   43   89 1
  82   43   90 1
  83   43   91 1
  84   44   92 1
  85   44   93 1
  86   44   94 1
  87   45   49 ar
  88   45   95 1
  89   46   47 ar
  90   47   48 ar
  91   47   50 1
  92   48   49 ar
  93   48   96 1
  94   49   97 1
  95   50   51 1
  96   50   52 1
  97   50   98 1
  98   51   99 1
  99   51  100 1
 100   51  101 1
 101   52  102 1
 102   52  103 1
 103   52  104 1
 104   53  105 1
 105   53  106 1
 106   53  107 1
 107   54   60 am
 108   55   56 1
 109   55   60 1
 110   56   57 1
 111   56   58 1
 112   56   59 1
 113   57  108 1
 114   57  109 1
 115   57  110 1
 116   58  111 1
 117   58  112 1
 118   58  113 1
 119   59  114 1
 120   59  115 1
 121   59  116 1
 122   60   61 2

#	End of record

