#	Name: ASD00840117
#	Creating user name:	WinNT
#	Creation time:	15. 06. 2019 18:37

#	Modifying user name:	WinNT
#	Modification time:	15. 06. 2019 18:37

#	Program:	/corina/corina34_cracker 3.40 0067  02.08.2006

@<TRIPOS>MOLECULE
ASD00840117
  90   95    0    0    0
SMALL
NO_CHARGES


@<TRIPOS>ATOM
   1 N1             0.0334     1.3308     0.1168 N.3     
   2 C2            -0.4976     1.7332    -1.1931 C.3     
   3 C3             0.3961     1.1665    -2.2988 C.3     
   4 N4             0.4471    -0.2975    -2.1817 N.3     
   5 C5             0.9780    -0.7000    -0.8718 C.3     
   6 C6             0.0843    -0.1332     0.2339 C.3     
   7 N7            -2.1768     5.0900     3.1068 N.am    
   8 C8            -2.1946     3.7933     2.7552 C.2     
   9 C9            -0.8881     3.1871     3.2214 C.3     
  10 C10           -0.1607     4.3396     3.8751 C.ar    
  11 C11            1.0668     4.4429     4.4906 C.ar    
  12 C12            1.4794     5.6582     5.0095 C.ar    
  13 C13            0.6534     6.7668     4.9066 C.ar    
  14 C14           -0.5782     6.6635     4.2897 C.ar    
  15 C15           -0.9978     5.4426     3.7655 C.ar    
  16 O16           -3.0896     3.2166     2.1742 O.2     
  17 F17            1.0547     7.9535     5.4125 F       
  18 C18           -1.9775     1.0251     3.9009 C.ar    
  19 C19           -1.1427     2.0884     4.2210 C.ar    
  20 C20           -0.5478     2.1250     5.4698 C.ar    
  21 C21           -0.8102     1.0914     6.3588 C.ar    
  22 C22           -1.6503     0.0661     5.9733 C.ar    
  23 N23           -2.2031     0.0588     4.7751 N.ar    
  24 O24           -2.5713     0.9805     2.6818 O.3     
  25 C25           -3.4182    -0.1387     2.4133 C.3     
  26 C26           -3.9934    -0.0158     1.0009 C.3     
  27 S27           -3.4090     6.1497     2.7889 S.o2    
  28 O28           -2.8319     7.4482     2.7897 O.2     
  29 O29           -4.1210     5.6163     1.6808 O.2     
  30 C30           -4.5118     6.0944     4.1620 C.ar    
  31 C31           -5.2105     4.9287     4.4438 C.ar    
  32 C32           -6.0778     4.8859     5.5242 C.ar    
  33 C33           -6.2451     6.0083     6.3209 C.ar    
  34 C34           -5.5444     7.1713     6.0351 C.ar    
  35 C35           -4.6759     7.2097     4.9607 C.ar    
  36 O36           -7.0951     5.9696     7.3805 O.3     
  37 C37           -7.2180     7.1625     8.1576 C.3     
  38 O38           -5.0447     3.8304     3.6608 O.3     
  39 C39           -5.7957     2.6658     4.0096 C.3     
  40 Cl40           3.0257     5.7934     5.7869 Cl      
  41 C41           -0.1007     2.6632     2.0481 C.2     
  42 O42            1.0721     2.9483     1.9290 O.2     
  43 N43           -0.6998     1.8778     1.1312 N.am    
  44 N44            1.4235    -2.7457    -5.4736 N.3     
  45 C45            2.1412    -3.0109    -4.2202 C.3     
  46 C46            1.3714    -2.3946    -3.0499 C.3     
  47 C47            1.2356    -0.8858    -3.2726 C.3     
  48 C48            0.5280    -0.6365    -4.6074 C.3     
  49 C49            1.3222    -1.3038    -5.7326 C.3     
  50 C50            2.0594    -3.4397    -6.6014 C.3     
  51 H51           -1.5099     1.3464    -1.3096 H       
  52 H52           -0.5136     2.8211    -1.2603 H       
  53 H53           -0.0120     1.4394    -3.2719 H       
  54 H54            1.4019     1.5746    -2.1985 H       
  55 H55            0.9941    -1.7878    -0.8046 H       
  56 H56            1.9903    -0.3131    -0.7552 H       
  57 H57            0.4925    -0.4062     1.2071 H       
  58 H58           -0.9214    -0.5413     0.1336 H       
  59 H59            1.7069     3.5765     4.5688 H       
  60 H60           -1.2170     7.5310     4.2132 H       
  61 H61            0.1061     2.9388     5.7465 H       
  62 H62           -0.3617     1.0894     7.3412 H       
  63 H63           -1.8575    -0.7405     6.6610 H       
  64 H64           -2.8396    -1.0592     2.4911 H       
  65 H65           -4.2331    -0.1596     3.1369 H       
  66 H66           -4.5721     0.9047     0.9231 H       
  67 H67           -3.1786     0.0051     0.2772 H       
  68 H68           -4.6395    -0.8695     0.7961 H       
  69 H69           -6.6227     3.9799     5.7448 H       
  70 H70           -5.6743     8.0458     6.6553 H       
  71 H71           -4.1280     8.1144     4.7424 H       
  72 H72           -7.5768     7.9736     7.5238 H       
  73 H73           -7.9256     6.9958     8.9697 H       
  74 H74           -6.2454     7.4282     8.5718 H       
  75 H75           -5.5285     2.3496     5.0180 H       
  76 H76           -6.8606     2.8950     3.9709 H       
  77 H77           -5.5708     1.8642     3.3060 H       
  78 H78           -1.6517     1.7010     1.1917 H       
  79 H79            2.2272    -4.0873    -4.0717 H       
  80 H80            3.1370    -2.5708    -4.2718 H       
  81 H81            0.3803    -2.8442    -2.9892 H       
  82 H82            1.9124    -2.5782    -2.1215 H       
  83 H83            2.2255    -0.4301    -3.2934 H       
  84 H84           -0.4764    -1.0585    -4.5712 H       
  85 H85            0.4664     0.4360    -4.7919 H       
  86 H86            2.3219    -0.8717    -5.7772 H       
  87 H87            0.8134    -1.1403    -6.6826 H       
  88 H88            2.0544    -4.5139    -6.4163 H       
  89 H89            1.5079    -3.2262    -7.5170 H       
  90 H90            3.0877    -3.0941    -6.7075 H       
@<TRIPOS>BOND
   1    1    2 1
   2    1    6 1
   3    1   43 1
   4    2    3 1
   5    2   51 1
   6    2   52 1
   7    3    4 1
   8    3   53 1
   9    3   54 1
  10    4    5 1
  11    4   47 1
  12    5    6 1
  13    5   55 1
  14    5   56 1
  15    6   57 1
  16    6   58 1
  17    7    8 am
  18    7   15 1
  19    7   27 am
  20    8    9 1
  21    8   16 2
  22    9   10 1
  23    9   19 1
  24    9   41 1
  25   10   11 ar
  26   10   15 ar
  27   11   12 ar
  28   11   59 1
  29   12   13 ar
  30   12   40 1
  31   13   14 ar
  32   13   17 1
  33   14   15 ar
  34   14   60 1
  35   18   19 ar
  36   18   23 ar
  37   18   24 1
  38   19   20 ar
  39   20   21 ar
  40   20   61 1
  41   21   22 ar
  42   21   62 1
  43   22   23 ar
  44   22   63 1
  45   24   25 1
  46   25   26 1
  47   25   64 1
  48   25   65 1
  49   26   66 1
  50   26   67 1
  51   26   68 1
  52   27   28 2
  53   27   29 2
  54   27   30 1
  55   30   31 ar
  56   30   35 ar
  57   31   32 ar
  58   31   38 1
  59   32   33 ar
  60   32   69 1
  61   33   34 ar
  62   33   36 1
  63   34   35 ar
  64   34   70 1
  65   35   71 1
  66   36   37 1
  67   37   72 1
  68   37   73 1
  69   37   74 1
  70   38   39 1
  71   39   75 1
  72   39   76 1
  73   39   77 1
  74   41   42 2
  75   41   43 am
  76   43   78 1
  77   44   45 1
  78   44   49 1
  79   44   50 1
  80   45   46 1
  81   45   79 1
  82   45   80 1
  83   46   47 1
  84   46   81 1
  85   46   82 1
  86   47   48 1
  87   47   83 1
  88   48   49 1
  89   48   84 1
  90   48   85 1
  91   49   86 1
  92   49   87 1
  93   50   88 1
  94   50   89 1
  95   50   90 1

#	End of record

