#	Name: ASD05790022
#	Creating user name:	WinNT
#	Creation time:	15. 06. 2019 21:03

#	Modifying user name:	WinNT
#	Modification time:	15. 06. 2019 21:03

#	Program:	/corina/corina34_cracker 3.40 0067  02.08.2006

@<TRIPOS>MOLECULE
ASD05790022
  44   47    0    0    0
SMALL
NO_CHARGES


@<TRIPOS>ATOM
   1 C1            -0.1753     1.4776    -0.5693 C.2     
   2 C2            -0.1532    -0.0033    -0.5731 C.ar    
   3 C3             0.8915    -0.7048    -1.1831 C.ar    
   4 C4             0.8721    -2.0859    -1.1632 C.ar    
   5 N5            -0.1123    -2.7408    -0.5803 N.ar    
   6 C6            -1.1158    -2.1187     0.0059 C.ar    
   7 C7            -1.1734    -0.7389     0.0381 C.ar    
   8 O8             0.7227     2.1001    -1.1012 O.2     
   9 N9            -1.1942     2.1348     0.0193 N.am    
  10 C10           -1.1620     3.5270     0.1191 C.ar    
  11 C11           -2.3412     4.2573     0.0191 C.ar    
  12 C12           -2.3129     5.6311     0.1176 C.ar    
  13 C13           -1.0981     6.2904     0.3182 C.ar    
  14 C14            0.0844     5.5540     0.4183 C.ar    
  15 C15            0.0486     4.1801     0.3242 C.ar    
  16 O16           -2.1303     8.5783     0.3440 O.3     
  17 C17           -1.0640     7.7635     0.4238 C.2     
  18 N18            0.0114     8.4903     0.6113 N.2     
  19 C19           -0.3500     9.7897     0.6549 C.2     
  20 C20           -1.6954     9.8454     0.4870 C.2     
  21 C21           -2.5437    11.0907     0.4648 C.3     
  22 F22           -2.6401    11.5659    -0.8475 F       
  23 F23           -3.8223    10.7926     0.9479 F       
  24 F24           -1.9562    12.0697     1.2732 F       
  25 C25            0.5582    10.9467     0.8511 C.ar    
  26 C26            1.6696    10.8300     1.6834 C.ar    
  27 C27            2.5109    11.9093     1.8624 C.ar    
  28 C28            2.2525    13.1053     1.2173 C.ar    
  29 C29            1.1506    13.2268     0.3899 C.ar    
  30 C30            0.3058    12.1521     0.1992 C.ar    
  31 H31            1.7010    -0.1748    -1.6628 H       
  32 H32            1.6742    -2.6367    -1.6319 H       
  33 H33           -1.9014    -2.6956     0.4710 H       
  34 H34           -1.9960    -0.2358     0.5246 H       
  35 H35           -1.9499     1.6405     0.3736 H       
  36 H36           -3.2802     3.7469    -0.1364 H       
  37 H37           -3.2290     6.1977     0.0395 H       
  38 H38            1.0254     6.0609     0.5731 H       
  39 H39            0.9621     3.6098     0.4056 H       
  40 H40            1.8721     9.8967     2.1879 H       
  41 H41            3.3724    11.8201     2.5075 H       
  42 H42            2.9132    13.9475     1.3604 H       
  43 H43            0.9533    14.1630    -0.1110 H       
  44 H44           -0.5515    12.2466    -0.4508 H       
@<TRIPOS>BOND
   1    1    2 1
   2    1    8 2
   3    1    9 am
   4    2    3 ar
   5    2    7 ar
   6    3    4 ar
   7    3   31 1
   8    4    5 ar
   9    4   32 1
  10    5    6 ar
  11    6    7 ar
  12    6   33 1
  13    7   34 1
  14    9   10 1
  15    9   35 1
  16   10   11 ar
  17   10   15 ar
  18   11   12 ar
  19   11   36 1
  20   12   13 ar
  21   12   37 1
  22   13   14 ar
  23   13   17 1
  24   14   15 ar
  25   14   38 1
  26   15   39 1
  27   16   17 1
  28   16   20 1
  29   17   18 2
  30   18   19 1
  31   19   20 2
  32   19   25 1
  33   20   21 1
  34   21   22 1
  35   21   23 1
  36   21   24 1
  37   25   26 ar
  38   25   30 ar
  39   26   27 ar
  40   26   40 1
  41   27   28 ar
  42   27   41 1
  43   28   29 ar
  44   28   42 1
  45   29   30 ar
  46   29   43 1
  47   30   44 1

#	End of record

