#	Name: ASD00842106
#	Creating user name:	WinNT
#	Creation time:	15. 06. 2019 18:43

#	Modifying user name:	WinNT
#	Modification time:	15. 06. 2019 18:43

#	Program:	/corina/corina34_cracker 3.40 0067  02.08.2006

@<TRIPOS>MOLECULE
ASD00842106
  85   90    0    0    0
SMALL
NO_CHARGES


@<TRIPOS>ATOM
   1 F1             6.1007    -1.6592    -1.9674 F       
   2 C2             1.0099     1.5592    -0.3880 C.ar    
   3 C3             1.3158     0.2286    -0.6327 C.ar    
   4 C4             1.2454    -0.6978     0.3979 C.ar    
   5 C5             0.8710    -0.2932     1.6644 C.ar    
   6 C6             0.5661     1.0339     1.9056 C.ar    
   7 C7             0.6359     1.9590     0.8806 C.ar    
   8 C8             1.5766    -2.1444     0.1355 C.3     
   9 C9             1.3066    -2.9821     1.3672 C.2     
  10 C10            0.7733    -2.6691    -1.0563 C.3     
  11 C11           -0.6957    -2.4370    -0.8132 C.2     
  12 N12           -1.6062    -2.9080    -1.6882 N.am    
  13 O13           -1.0587    -1.8263     0.1698 O.2     
  14 C14           -3.0324    -2.5941    -1.5263 C.3     
  15 C15           -3.8280    -3.9032    -1.5217 C.3     
  16 C16           -3.4994    -4.6995    -2.7866 C.3     
  17 C17           -2.0077    -5.0410    -2.8034 C.3     
  18 C18           -1.1907    -3.7401    -2.8256 C.3     
  19 N19           -4.2857    -5.9403    -2.8018 N.3     
  20 C20           -4.0857    -6.6752    -4.0587 C.3     
  21 C21           -4.8568    -7.9960    -4.0024 C.3     
  22 N22           -6.2826    -7.7188    -3.7790 N.3     
  23 C23           -6.4825    -6.9839    -2.5221 C.3     
  24 C24           -5.7114    -5.6631    -2.5783 C.3     
  25 H25           -6.6798    -7.2164    -4.5587 H       
  26 O26            0.2348    -3.1336     1.9145 O.2     
  27 N27            2.4770    -3.5269     1.7397 N.am    
  28 C28            3.0591    -2.3127    -0.1062 C.ar    
  29 C29            3.5255    -3.1541     0.8961 C.ar    
  30 C30            3.9138    -1.8125    -1.0624 C.ar    
  31 C31            5.2581    -2.1481    -1.0313 C.ar    
  32 C32            5.7350    -2.9865    -0.0365 C.ar    
  33 C33            4.8776    -3.4882     0.9226 C.ar    
  34 Cl34           7.4185    -3.4081     0.0043 Cl      
  35 C35            2.4014    -6.1749     2.4859 C.ar    
  36 C36            1.1579    -6.5613     2.0078 C.ar    
  37 C37            3.4419    -7.0834     2.5147 C.ar    
  38 C38            3.2447    -8.3765     2.0672 C.ar    
  39 C39            2.0060    -8.7642     1.5901 C.ar    
  40 C40            0.9624    -7.8599     1.5596 C.ar    
  41 H41            1.8545    -9.7749     1.2411 H       
  42 O42            0.1327    -5.6697     1.9788 O.3     
  43 C43           -1.1196    -6.1372     1.4737 C.3     
  44 O44            1.6834    -0.1671    -1.8797 O.3     
  45 C45            2.1677     0.2185    -4.2158 C.3     
  46 C46            1.6254     0.8155    -2.9156 C.3     
  47 S47            2.6556    -4.5248     3.0491 S.o2    
  48 O48            4.0202    -4.4387     3.4360 O.2     
  49 O49            1.5785    -4.2303     3.9280 O.2     
  50 H50            1.0682     2.2830    -1.1875 H       
  51 H51            0.8161    -1.0139     2.4668 H       
  52 H52            0.2729     1.3482     2.8964 H       
  53 H53            0.3973     2.9948     1.0715 H       
  54 H54            1.0795    -2.1432    -1.9606 H       
  55 H55            0.9574    -3.7367    -1.1768 H       
  56 H56           -3.1863    -2.0697    -0.5832 H       
  57 H57           -3.3648    -1.9673    -2.3537 H       
  58 H58           -3.5593    -4.4892    -0.6428 H       
  59 H59           -4.8947    -3.6805    -1.4989 H       
  60 H60           -3.7453    -4.1032    -3.6653 H       
  61 H61           -1.7561    -5.6163    -1.9124 H       
  62 H62           -1.7788    -5.6281    -3.6928 H       
  63 H63           -1.3742    -3.2094    -3.7598 H       
  64 H64           -0.1296    -3.9735    -2.7378 H       
  65 H65           -4.4513    -6.0758    -4.8925 H       
  66 H66           -3.0238    -6.8795    -4.1954 H       
  67 H67           -4.7334    -8.5295    -4.9449 H       
  68 H68           -4.4727    -8.6069    -3.1855 H       
  69 H69           -7.5444    -6.7796    -2.3854 H       
  70 H70           -6.1169    -7.5833    -1.6883 H       
  71 H71           -5.8348    -5.1296    -1.6359 H       
  72 H72           -6.0955    -5.0522    -3.3953 H       
  73 H73            3.5372    -1.1596    -1.8360 H       
  74 H74            5.2562    -4.1411     1.6951 H       
  75 H75            4.4103    -6.7830     2.8869 H       
  76 H76            4.0596    -9.0849     2.0899 H       
  77 H77           -0.0050    -8.1633     1.1876 H       
  78 H78           -1.8492    -5.3281     1.5057 H       
  79 H79           -0.9938    -6.4724     0.4442 H       
  80 H80           -1.4711    -6.9678     2.0858 H       
  81 H81            3.1706    -0.1730    -4.0453 H       
  82 H82            1.5137    -0.5887    -4.5455 H       
  83 H83            2.2052     0.9920    -4.9829 H       
  84 H84            0.5915     1.1278    -3.0627 H       
  85 H85            2.2287     1.6780    -2.6324 H       
@<TRIPOS>BOND
   1    1   31 1
   2    2    3 ar
   3    2    7 ar
   4    2   50 1
   5    3    4 ar
   6    3   44 1
   7    4    5 ar
   8    4    8 1
   9    5    6 ar
  10    5   51 1
  11    6    7 ar
  12    6   52 1
  13    7   53 1
  14    8    9 1
  15    8   10 1
  16    8   28 1
  17    9   26 2
  18    9   27 am
  19   10   11 1
  20   10   54 1
  21   10   55 1
  22   11   12 am
  23   11   13 2
  24   12   14 1
  25   12   18 1
  26   14   15 1
  27   14   56 1
  28   14   57 1
  29   15   16 1
  30   15   58 1
  31   15   59 1
  32   16   17 1
  33   16   19 1
  34   16   60 1
  35   17   18 1
  36   17   61 1
  37   17   62 1
  38   18   63 1
  39   18   64 1
  40   19   20 1
  41   19   24 1
  42   20   21 1
  43   20   65 1
  44   20   66 1
  45   21   22 1
  46   21   67 1
  47   21   68 1
  48   22   23 1
  49   22   25 1
  50   23   24 1
  51   23   69 1
  52   23   70 1
  53   24   71 1
  54   24   72 1
  55   27   47 am
  56   27   29 1
  57   28   29 ar
  58   28   30 ar
  59   29   33 ar
  60   30   31 ar
  61   30   73 1
  62   31   32 ar
  63   32   33 ar
  64   32   34 1
  65   33   74 1
  66   35   36 ar
  67   35   37 ar
  68   35   47 1
  69   36   42 1
  70   36   40 ar
  71   37   38 ar
  72   37   75 1
  73   38   39 ar
  74   38   76 1
  75   39   40 ar
  76   39   41 1
  77   40   77 1
  78   42   43 1
  79   43   78 1
  80   43   79 1
  81   43   80 1
  82   44   46 1
  83   45   46 1
  84   45   81 1
  85   45   82 1
  86   45   83 1
  87   46   84 1
  88   46   85 1
  89   47   48 2
  90   47   49 2

#	End of record

