#	Name: ASD01903041
#	Creating user name:	WinNT
#	Creation time:	15. 06. 2019 19:54

#	Modifying user name:	WinNT
#	Modification time:	15. 06. 2019 19:54

#	Program:	/corina/corina34_cracker 3.40 0067  02.08.2006

@<TRIPOS>MOLECULE
ASD01903041
  50   52    0    0    0
SMALL
NO_CHARGES


@<TRIPOS>ATOM
   1 C1             2.8259     2.0221    -1.7358 C.ar    
   2 C2             2.9379     0.6780    -1.4383 C.ar    
   3 C3             1.8198    -0.1449    -1.5106 C.ar    
   4 C4             0.5913     0.3845    -1.8817 C.ar    
   5 C5             0.4799     1.7286    -2.1791 C.ar    
   6 C6             1.5963     2.5509    -2.1070 C.ar    
   7 N7             1.4826     3.9139    -2.4082 N.am    
   8 C8             0.3699     4.5903    -2.0607 C.2     
   9 O9            -0.5665     4.0017    -1.5567 O.2     
  10 C10            0.2881     6.0509    -2.2930 C.ar    
  11 N11            1.3139     6.6882    -2.8438 N.ar    
  12 C12            1.2818     7.9839    -3.0670 C.ar    
  13 C13            0.1674     8.7363    -2.7326 C.ar    
  14 C14           -0.9266     8.1107    -2.1551 C.ar    
  15 C15           -0.8672     6.7435    -1.9367 C.ar    
  16 Cl16           4.4745     0.0163    -0.9749 Cl      
  17 N17            1.9327    -1.5072    -1.2098 N.3     
  18 C18            2.7665    -2.1982    -2.2024 C.3     
  19 C19            3.0143    -3.6387    -1.7424 C.3     
  20 N20            1.7151    -4.2729    -1.4718 N.am    
  21 C21            0.7679    -3.5709    -0.5924 C.3     
  22 C22            0.6085    -2.1331    -1.0977 C.3     
  23 C23            1.4008    -5.4653    -2.0156 C.2     
  24 O24            0.2933    -5.9325    -1.8538 O.2     
  25 C25            2.4254    -6.2181    -2.8246 C.3     
  26 C26            3.4949    -6.7874    -1.8904 C.3     
  27 C27            1.7419    -7.3629    -3.5750 C.3     
  28 H28            3.6934     2.6626    -1.6755 H       
  29 H29           -0.2773    -0.2548    -1.9382 H       
  30 H30           -0.4759     2.1401    -2.4681 H       
  31 H31            2.2047     4.3711    -2.8669 H       
  32 H32            2.1360     8.4682    -3.5168 H       
  33 H33            0.1514     9.7998    -2.9198 H       
  34 H34           -1.8070     8.6753    -1.8855 H       
  35 H35           -1.7012     6.2237    -1.4888 H       
  36 H36            2.2546    -2.2066    -3.1647 H       
  37 H37            3.7197    -1.6789    -2.3015 H       
  38 H38            3.5342    -4.1892    -2.5265 H       
  39 H39            3.6161    -3.6345    -0.8335 H       
  40 H40           -0.1974    -4.0766    -0.6162 H       
  41 H41            1.1537    -3.5602     0.4270 H       
  42 H42           -0.0034    -1.5666    -0.3957 H       
  43 H43            0.1267    -2.1424    -2.0754 H       
  44 H44            2.8915    -5.5414    -3.5408 H       
  45 H45            4.0437    -5.9688    -1.4247 H       
  46 H46            3.0185    -7.3913    -1.1180 H       
  47 H47            4.1845    -7.4078    -2.4628 H       
  48 H48            0.9799    -6.9573    -4.2406 H       
  49 H49            2.4829    -7.9074    -4.1602 H       
  50 H50            1.2758    -8.0396    -2.8588 H       
@<TRIPOS>BOND
   1    1    2 ar
   2    1    6 ar
   3    1   28 1
   4    2    3 ar
   5    2   16 1
   6    3    4 ar
   7    3   17 1
   8    4    5 ar
   9    4   29 1
  10    5    6 ar
  11    5   30 1
  12    6    7 1
  13    7    8 am
  14    7   31 1
  15    8    9 2
  16    8   10 1
  17   10   11 ar
  18   10   15 ar
  19   11   12 ar
  20   12   13 ar
  21   12   32 1
  22   13   14 ar
  23   13   33 1
  24   14   15 ar
  25   14   34 1
  26   15   35 1
  27   17   18 1
  28   17   22 1
  29   18   19 1
  30   18   36 1
  31   18   37 1
  32   19   20 1
  33   19   38 1
  34   19   39 1
  35   20   21 1
  36   20   23 am
  37   21   22 1
  38   21   40 1
  39   21   41 1
  40   22   42 1
  41   22   43 1
  42   23   24 2
  43   23   25 1
  44   25   26 1
  45   25   27 1
  46   25   44 1
  47   26   45 1
  48   26   46 1
  49   26   47 1
  50   27   48 1
  51   27   49 1
  52   27   50 1

#	End of record

