#	Name: ASD09740330
#	Creating user name:	WinNT
#	Creation time:	15. 06. 2019 21:23

#	Modifying user name:	WinNT
#	Modification time:	15. 06. 2019 21:23

#	Program:	/corina/corina34_cracker 3.40 0067  02.08.2006

@<TRIPOS>MOLECULE
ASD09740330
  70   73    0    0    0
SMALL
NO_CHARGES


@<TRIPOS>ATOM
   1 N1             0.1884     0.2954    -1.6420 N.2     
   2 O2             0.0463    -0.8201    -1.1880 O.3     
   3 C3             1.0491     0.9725    -0.9239 C.2     
   4 N4             1.4664     0.1635     0.0730 N.2     
   5 C5             0.8223    -0.9754    -0.1038 C.2     
   6 C6             0.9337    -2.1879     0.7320 C.ar    
   7 C7             1.4849     2.3688    -1.1619 C.ar    
   8 C8             0.1846    -3.3250     0.4193 C.ar    
   9 C9             0.2922    -4.4568     1.2042 C.ar    
  10 C10            1.1468    -4.4624     2.3054 C.ar    
  11 C11            1.8906    -3.3332     2.6158 C.ar    
  12 C12            1.7921    -2.2023     1.8330 C.ar    
  13 C13            0.5345     3.3990    -1.2762 C.ar    
  14 C14            0.9585     4.7205    -1.5021 C.ar    
  15 C15            2.3176     4.9946    -1.6107 C.ar    
  16 C16            3.2415     3.9769    -1.4980 C.ar    
  17 C17            2.8361     2.6728    -1.2686 C.ar    
  18 O18            1.2513    -5.5761     3.0767 O.3     
  19 C19            2.1292    -6.8499     4.9333 C.3     
  20 C20            2.1455    -5.5130     4.1895 C.3     
  21 O21           -0.4359    -5.5652     0.9028 O.3     
  22 C22           -1.2914    -5.4886    -0.2393 C.3     
  23 C23           -2.0235    -6.8201    -0.4183 C.3     
  24 N24           -0.1729     5.5036    -1.5692 N.pl3   
  25 C25           -1.2854     4.7281    -1.3949 C.2     
  26 C26           -0.9254     3.4462    -1.2130 C.2     
  27 C27           -1.8510     2.2785    -0.9876 C.3     
  28 N28           -1.8515     1.9220     0.4375 N.3     
  29 C29           -2.7450     0.7849     0.6954 C.3     
  30 C30           -2.7189     0.4438     2.1867 C.3     
  31 N31           -3.6123    -0.6934     2.4446 N.3     
  32 C32           -3.4370    -1.2011     3.8119 C.3     
  33 C33           -5.0133    -0.3296     2.1938 C.3     
  34 C34           -5.8575    -1.6004     2.0788 C.3     
  35 C35           -2.1401    -2.0088     3.8935 C.3     
  36 H36           -0.4774    -3.3191    -0.4340 H       
  37 H37            2.5514    -3.3413     3.4701 H       
  38 H38            2.3722    -1.3245     2.0769 H       
  39 H39            2.6505     6.0073    -1.7842 H       
  40 H40            4.2945     4.2006    -1.5843 H       
  41 H41            3.5727     1.8876    -1.1828 H       
  42 H42            1.1197    -7.0552     5.2896 H       
  43 H43            2.4449    -7.6452     4.2581 H       
  44 H44            2.8113    -6.8018     5.7822 H       
  45 H45            3.1550    -5.3077     3.8332 H       
  46 H46            1.8298    -4.7177     4.8647 H       
  47 H47           -2.0193    -4.6902    -0.0951 H       
  48 H48           -0.6944    -5.2799    -1.1271 H       
  49 H49           -2.6760    -6.7617    -1.2895 H       
  50 H50           -1.2955    -7.6184    -0.5625 H       
  51 H51           -2.6205    -7.0287     0.4695 H       
  52 H52           -0.1793     6.4622    -1.7174 H       
  53 H53           -2.3023     5.0917    -1.4024 H       
  54 H54           -2.8609     2.5509    -1.2943 H       
  55 H55           -1.5103     1.4260    -1.5753 H       
  56 H56           -0.9160     1.7277     0.7619 H       
  57 H57           -3.7610     1.0469     0.4004 H       
  58 H58           -2.4105    -0.0779     0.1194 H       
  59 H59           -1.7028     0.1817     2.4817 H       
  60 H60           -3.0534     1.3066     2.7626 H       
  61 H61           -3.3875    -0.3631     4.5071 H       
  62 H62           -4.2802    -1.8405     4.0729 H       
  63 H63           -5.3838     0.2794     3.0184 H       
  64 H64           -5.0809     0.2368     1.2649 H       
  65 H65           -5.7701    -2.1791     2.9984 H       
  66 H66           -6.9010    -1.3300     1.9174 H       
  67 H67           -5.5027    -2.1975     1.2387 H       
  68 H68           -2.1485    -2.7878     3.1312 H       
  69 H69           -1.2893    -1.3477     3.7281 H       
  70 H70           -2.0584    -2.4662     4.8795 H       
@<TRIPOS>BOND
   1    1    2 1
   2    1    3 2
   3    2    5 1
   4    3    4 1
   5    3    7 1
   6    4    5 2
   7    5    6 1
   8    6    8 ar
   9    6   12 ar
  10    7   13 ar
  11    7   17 ar
  12    8    9 ar
  13    8   36 1
  14    9   10 ar
  15    9   21 1
  16   10   11 ar
  17   10   18 1
  18   11   12 ar
  19   11   37 1
  20   12   38 1
  21   13   14 ar
  22   13   26 1
  23   14   15 ar
  24   14   24 1
  25   15   16 ar
  26   15   39 1
  27   16   17 ar
  28   16   40 1
  29   17   41 1
  30   18   20 1
  31   19   20 1
  32   19   42 1
  33   19   43 1
  34   19   44 1
  35   20   45 1
  36   20   46 1
  37   21   22 1
  38   22   23 1
  39   22   47 1
  40   22   48 1
  41   23   49 1
  42   23   50 1
  43   23   51 1
  44   24   25 1
  45   24   52 1
  46   25   26 2
  47   25   53 1
  48   26   27 1
  49   27   28 1
  50   27   54 1
  51   27   55 1
  52   28   29 1
  53   28   56 1
  54   29   30 1
  55   29   57 1
  56   29   58 1
  57   30   31 1
  58   30   59 1
  59   30   60 1
  60   31   32 1
  61   31   33 1
  62   32   35 1
  63   32   61 1
  64   32   62 1
  65   33   34 1
  66   33   63 1
  67   33   64 1
  68   34   65 1
  69   34   66 1
  70   34   67 1
  71   35   68 1
  72   35   69 1
  73   35   70 1

#	End of record

