#	Name: ASD00170506
#	Creating user name:	WinNT
#	Creation time:	15. 06. 2019 18:32

#	Modifying user name:	WinNT
#	Modification time:	15. 06. 2019 18:32

#	Program:	/corina/corina34_cracker 3.40 0067  02.08.2006

@<TRIPOS>MOLECULE
ASD00170506
  53   55    0    0    0
SMALL
NO_CHARGES


@<TRIPOS>ATOM
   1 C1             1.4183     1.4257    -0.0442 C.3     
   2 C2             1.2138    -0.0674    -0.0424 C.ar    
   3 C3             0.9394    -0.7260    -1.2283 C.ar    
   4 C4             0.7511    -2.0920    -1.2349 C.ar    
   5 C5             0.8380    -2.8118    -0.0392 C.ar    
   6 C6             1.1156    -2.1391     1.1548 C.ar    
   7 C7             1.3070    -0.7736     1.1442 C.ar    
   8 C8             0.6433    -4.2305    -0.0375 C.1     
   9 C9             0.4836    -5.3936    -0.0361 C.1     
  10 C10            0.2889    -6.8123    -0.0344 C.2     
  11 S11           -0.0577    -7.7805    -1.4580 S.3     
  12 C12           -0.1175    -9.2170    -0.5403 C.2     
  13 N13           -0.3663   -10.4691    -1.0562 N.pl3   
  14 C14            0.1194    -8.9472     0.7924 C.2     
  15 C15            0.1328    -9.9812     1.8291 C.2     
  16 O16           -0.9134   -10.3645     2.3201 O.2     
  17 C17            1.4166   -10.5598     2.2796 C.ar    
  18 C18            2.6079   -10.2008     1.6460 C.ar    
  19 C19            3.8022   -10.7434     2.0710 C.ar    
  20 C20            3.8216   -11.6429     3.1242 C.ar    
  21 Cl21           5.3291   -12.3218     3.6536 Cl      
  22 C22            2.6431   -12.0025     3.7570 C.ar    
  23 C23            1.4431   -11.4629     3.3441 C.ar    
  24 C24            0.3508    -7.5967     1.0578 C.2     
  25 C25            0.6384    -7.0658     2.4385 C.3     
  26 C26           -0.6767    -6.6925     3.1256 C.3     
  27 C27           -1.5668    -7.9324     3.2311 C.3     
  28 C28           -0.3847    -6.1534     4.5274 C.3     
  29 C29           -1.3937    -5.6183     2.3052 C.3     
  30 H30            2.4731     1.6478    -0.2056 H       
  31 H31            0.8265     1.8725    -0.8431 H       
  32 H32            1.1031     1.8367     0.9149 H       
  33 H33            0.8723    -0.1686    -2.1509 H       
  34 H34            0.5367    -2.6045    -2.1611 H       
  35 H35            1.1842    -2.6883     2.0823 H       
  36 H36            1.5258    -0.2532     2.0649 H       
  37 H37           -0.5961   -10.5708    -1.9931 H       
  38 H38           -0.3118   -11.2496    -0.4827 H       
  39 H39            2.5939    -9.4999     0.8245 H       
  40 H40            4.7243   -10.4668     1.5814 H       
  41 H41            2.6645   -12.7040     4.5779 H       
  42 H42            0.5254   -11.7408     3.8409 H       
  43 H43            1.1492    -7.8310     3.0230 H       
  44 H44            1.2725    -6.1824     2.3633 H       
  45 H45           -1.0560    -8.6977     3.8156 H       
  46 H46           -2.5037    -7.6665     3.7206 H       
  47 H47           -1.7748    -8.3165     2.2325 H       
  48 H48            0.2494    -5.2701     4.4521 H       
  49 H49           -1.3216    -5.8875     5.0168 H       
  50 H50            0.1261    -6.9187     5.1118 H       
  51 H51           -1.6017    -6.0024     1.3065 H       
  52 H52           -2.3306    -5.3524     2.7946 H       
  53 H53           -0.7596    -4.7350     2.2300 H       
@<TRIPOS>BOND
   1    1    2 1
   2    1   30 1
   3    1   31 1
   4    1   32 1
   5    2    7 ar
   6    2    3 ar
   7    3    4 ar
   8    3   33 1
   9    4    5 ar
  10    4   34 1
  11    5    6 ar
  12    5    8 1
  13    6    7 ar
  14    6   35 1
  15    7   36 1
  16    8    9 3
  17    9   10 1
  18   10   24 2
  19   10   11 1
  20   11   12 1
  21   12   13 1
  22   12   14 2
  23   13   37 1
  24   13   38 1
  25   14   15 1
  26   14   24 1
  27   15   16 2
  28   15   17 1
  29   17   23 ar
  30   17   18 ar
  31   18   19 ar
  32   18   39 1
  33   19   20 ar
  34   19   40 1
  35   20   21 1
  36   20   22 ar
  37   22   23 ar
  38   22   41 1
  39   23   42 1
  40   24   25 1
  41   25   26 1
  42   25   43 1
  43   25   44 1
  44   26   27 1
  45   26   28 1
  46   26   29 1
  47   27   45 1
  48   27   46 1
  49   27   47 1
  50   28   48 1
  51   28   49 1
  52   28   50 1
  53   29   51 1
  54   29   52 1
  55   29   53 1

#	End of record

