#	Name: ASD01940539
#	Creating user name:	WinNT
#	Creation time:	15. 06. 2019 20:12

#	Modifying user name:	WinNT
#	Modification time:	15. 06. 2019 20:12

#	Program:	/corina/corina34_cracker 3.40 0067  02.08.2006

@<TRIPOS>MOLECULE
ASD01940539
  41   43    0    0    0
SMALL
NO_CHARGES


@<TRIPOS>ATOM
   1 C1            -0.0162     1.3436     0.0094 C.2     
   2 N2             0.0021    -0.0041     0.0020 N.am    
   3 O3             1.0277     1.9654     0.0028 O.2     
   4 O4            -1.1912     2.0008     0.0186 O.3     
   5 N5             0.8077    -2.7018     0.4399 N.pl3   
   6 C6             1.4997    -1.6439     1.1914 C.3     
   7 C7             1.2806    -0.7192    -0.0140 C.3     
   8 C8             1.2531    -2.0400    -0.7956 C.3     
   9 C9            -0.4650    -4.6447    -0.2697 C.2     
  10 C10            0.0674    -3.8289     0.7564 C.2     
  11 N11           -1.1920    -5.7524     0.0692 N.pl3   
  12 N12           -0.1472    -4.1517     2.0171 N.2     
  13 C13           -0.8584    -5.2352     2.3393 C.2     
  14 C14           -1.3835    -6.0396     1.3921 C.2     
  15 N15           -1.5555    -6.3101    -1.0308 N.2     
  16 N16           -1.1045    -5.6253    -2.0240 N.2     
  17 N17           -0.4423    -4.6054    -1.5924 N.2     
  18 C18           -1.2565    -0.7538     0.0100 C.3     
  19 C19           -1.1349     3.4517     0.0262 C.3     
  20 C20           -0.4003     3.9401    -1.2239 C.3     
  21 C21           -2.5565     4.0172     0.0360 C.3     
  22 C22           -0.3885     3.9266     1.2745 C.3     
  23 H23            0.9640    -1.3255     2.0858 H       
  24 H24            2.5496    -1.8642     1.3843 H       
  25 H25            2.1305    -0.0771    -0.2451 H       
  26 H26            2.2374    -2.3659    -1.1320 H       
  27 H27            0.5079    -2.0584    -1.5909 H       
  28 H28           -1.0162    -5.4728     3.3809 H       
  29 H29           -1.9552    -6.9099     1.6787 H       
  30 H30           -1.5785    -0.9342    -1.0156 H       
  31 H31           -1.1084    -1.7071     0.5173 H       
  32 H32           -2.0192    -0.1778     0.5342 H       
  33 H33           -0.9321     3.6018    -2.1132 H       
  34 H34           -0.3581     5.0293    -1.2182 H       
  35 H35            0.6125     3.5373    -1.2309 H       
  36 H36           -3.0798     3.6692     0.9266 H       
  37 H37           -2.5142     5.1064     0.0417 H       
  38 H38           -3.0883     3.6789    -0.8533 H       
  39 H39            0.6243     3.5237     1.2675 H       
  40 H40           -0.3462     5.0157     1.2802 H       
  41 H41           -0.9118     3.5786     2.1651 H       
@<TRIPOS>BOND
   1    1    2 am
   2    1    3 2
   3    1    4 1
   4    2    7 1
   5    2   18 1
   6    4   19 1
   7    5    6 1
   8    5    8 1
   9    5   10 1
  10    6    7 1
  11    6   23 1
  12    6   24 1
  13    7    8 1
  14    7   25 1
  15    8   26 1
  16    8   27 1
  17    9   10 1
  18    9   11 1
  19    9   17 2
  20   10   12 2
  21   11   14 1
  22   11   15 1
  23   12   13 1
  24   13   14 2
  25   13   28 1
  26   14   29 1
  27   15   16 2
  28   16   17 1
  29   18   30 1
  30   18   31 1
  31   18   32 1
  32   19   20 1
  33   19   22 1
  34   19   21 1
  35   20   33 1
  36   20   34 1
  37   20   35 1
  38   21   36 1
  39   21   37 1
  40   21   38 1
  41   22   39 1
  42   22   40 1
  43   22   41 1

#	End of record

