#	Name: ASD01810506
#	Creating user name:	WinNT
#	Creation time:	15. 06. 2019 19:24

#	Modifying user name:	WinNT
#	Modification time:	15. 06. 2019 19:24

#	Program:	/corina/corina34_cracker 3.40 0067  02.08.2006

@<TRIPOS>MOLECULE
ASD01810506
  82   84    0    0    0
SMALL
NO_CHARGES


@<TRIPOS>ATOM
   1 C1            -0.1196     1.0816     0.6530 C.ar    
   2 C2             0.0063    -0.2997     0.6044 C.ar    
   3 C3             1.2343    -0.8880     0.3825 C.ar    
   4 C4             2.3680    -0.0988     0.2032 C.ar    
   5 C5             2.2348     1.2995     0.2416 C.ar    
   6 C6             0.9858     1.8830     0.4730 C.ar    
   7 N7             3.5905    -0.7118     0.0035 N.3     
   8 C8             4.5550     0.1111    -0.7274 C.3     
   9 C9             4.7624     1.4407     0.0123 C.3     
  10 C10            3.4187     2.1478     0.0272 C.2     
  11 C11            3.4236    -2.0225    -0.6385 C.3     
  12 C12            4.7780    -2.6109    -0.9388 C.ar    
  13 C13            5.4084    -3.4083    -0.0020 C.ar    
  14 C14            6.6509    -3.9480    -0.2775 C.ar    
  15 C15            7.2627    -3.6907    -1.4900 C.ar    
  16 C16            6.6320    -2.8941    -2.4272 C.ar    
  17 C17            5.3876    -2.3579    -2.1535 C.ar    
  18 Br18          -1.5219    -1.3871     0.8456 Br      
  19 O19            3.3258     3.3472    -0.1296 O.2     
  20 C20            5.2225     1.1790     1.4233 C.2     
  21 N21            5.4663     2.2111     2.2550 N.am    
  22 O22            5.3734     0.0396     1.8104 O.2     
  23 C23            8.0993     6.4438    10.7405 C.3     
  24 C24            8.5487     6.1882    12.1187 C.1     
  25 C25            8.9072     5.9843    13.2179 C.1     
  26 C26            9.3566     5.7287    14.5961 C.3     
  27 O27            9.5460     6.9724    15.2738 O.3     
  28 C28            9.9611     6.9141    16.5594 C.2     
  29 N29           10.1987     5.8467    17.2197 N.2     
  30 C30           10.2296     8.1051    17.4595 C.3     
  31 C31           10.2752     7.4587    18.8650 C.3     
  32 O32           10.6267     6.0959    18.5439 O.3     
  33 N33            7.9046     5.1652    10.0438 N.4     
  34 C34            9.1731     4.4248    10.0158 C.3     
  35 C35            6.8901     4.3720    10.7505 C.3     
  36 C36            5.9136     1.9567     3.6266 C.3     
  37 C37            6.1163     3.2884     4.3522 C.3     
  38 C38            6.5835     3.0227     5.7847 C.3     
  39 C39            6.7862     4.3544     6.5103 C.3     
  40 C40            7.2534     4.0887     7.9428 C.3     
  41 C41            7.4561     5.4203     8.6684 C.3     
  42 H42           -1.0869     1.5289     0.8279 H       
  43 H43            1.3170    -1.9643     0.3480 H       
  44 H44            0.8881     2.9579     0.5102 H       
  45 H45            5.5054    -0.4182    -0.7960 H       
  46 H46            4.1769     0.3089    -1.7304 H       
  47 H47            5.4979     2.0491    -0.5138 H       
  48 H48            2.8786    -2.6881     0.0309 H       
  49 H49            2.8650    -1.9038    -1.5669 H       
  50 H50            4.9304    -3.6093     0.9454 H       
  51 H51            7.1437    -4.5704     0.4548 H       
  52 H52            8.2338    -4.1118    -1.7050 H       
  53 H53            7.1102    -2.6928    -3.3745 H       
  54 H54            4.8948    -1.7355    -2.8857 H       
  55 H55            5.3456     3.1224     1.9454 H       
  56 H56            7.1581     6.9932    10.7612 H       
  57 H57            8.8521     7.0323    10.2161 H       
  58 H58            8.6038     5.1401    15.1205 H       
  59 H59           10.2978     5.1792    14.5753 H       
  60 H60           11.1858     8.5675    17.2148 H       
  61 H61            9.4191     8.8309    17.3933 H       
  62 H62           11.0430     7.9230    19.4839 H       
  63 H63            9.3006     7.5097    19.3504 H       
  64 H64            9.9259     5.0133     9.4914 H       
  65 H65            9.5059     4.2355    11.0364 H       
  66 H66            9.0286     3.4761     9.4989 H       
  67 H67            6.7456     3.4233    10.2336 H       
  68 H68            7.2229     4.1827    11.7711 H       
  69 H69            5.9489     4.9214    10.7713 H       
  70 H70            5.1608     1.3682     4.1510 H       
  71 H71            6.8548     1.4073     3.6059 H       
  72 H72            6.8691     3.8770     3.8278 H       
  73 H73            5.1752     3.8378     4.3730 H       
  74 H74            5.8307     2.4341     6.3091 H       
  75 H75            7.5247     2.4733     5.7640 H       
  76 H76            7.5390     4.9429     5.9859 H       
  77 H77            5.8451     4.9038     6.5311 H       
  78 H78            6.5006     3.5001     8.4672 H       
  79 H79            8.1945     3.5392     7.9221 H       
  80 H80            6.5150     5.9697     8.6892 H       
  81 H81            8.2089     6.0089     8.1440 H       
  82 Br82          16.1858    13.8309    24.4839 Br      
@<TRIPOS>BOND
   1    1    2 ar
   2    1    6 ar
   3    1   42 1
   4    2    3 ar
   5    2   18 1
   6    3    4 ar
   7    3   43 1
   8    4    5 ar
   9    4    7 1
  10    5    6 ar
  11    5   10 1
  12    6   44 1
  13    7    8 1
  14    7   11 1
  15    8    9 1
  16    8   45 1
  17    8   46 1
  18    9   10 1
  19    9   20 1
  20    9   47 1
  21   10   19 2
  22   11   12 1
  23   11   48 1
  24   11   49 1
  25   12   13 ar
  26   12   17 ar
  27   13   14 ar
  28   13   50 1
  29   14   15 ar
  30   14   51 1
  31   15   16 ar
  32   15   52 1
  33   16   17 ar
  34   16   53 1
  35   17   54 1
  36   20   21 am
  37   20   22 2
  38   21   36 1
  39   21   55 1
  40   23   24 1
  41   23   33 1
  42   23   56 1
  43   23   57 1
  44   24   25 3
  45   25   26 1
  46   26   27 1
  47   26   58 1
  48   26   59 1
  49   27   28 1
  50   28   29 2
  51   28   30 1
  52   29   32 1
  53   30   31 1
  54   30   60 1
  55   30   61 1
  56   31   32 1
  57   31   62 1
  58   31   63 1
  59   33   41 1
  60   33   34 1
  61   33   35 1
  62   34   64 1
  63   34   65 1
  64   34   66 1
  65   35   67 1
  66   35   68 1
  67   35   69 1
  68   36   37 1
  69   36   70 1
  70   36   71 1
  71   37   38 1
  72   37   72 1
  73   37   73 1
  74   38   39 1
  75   38   74 1
  76   38   75 1
  77   39   40 1
  78   39   76 1
  79   39   77 1
  80   40   41 1
  81   40   78 1
  82   40   79 1
  83   41   80 1
  84   41   81 1

#	End of record

