#	Name: ASD01948286
#	Creating user name:	WinNT
#	Creation time:	15. 06. 2019 20:14

#	Modifying user name:	WinNT
#	Modification time:	15. 06. 2019 20:14

#	Program:	/corina/corina34_cracker 3.40 0067  02.08.2006

@<TRIPOS>MOLECULE
ASD01948286
  51   53    0    0    0
SMALL
NO_CHARGES


@<TRIPOS>ATOM
   1 C1             1.4513     5.5036    -0.8257 C.ar    
   2 C2             1.8445     5.5710    -2.1507 C.ar    
   3 C3             2.9172     4.8203    -2.5960 C.ar    
   4 C4             3.6006     3.9998    -1.7191 C.ar    
   5 C5             3.2103     3.9291    -0.3889 C.ar    
   6 C6             2.1308     4.6852     0.0572 C.ar    
   7 N7             4.6217     0.9841    -0.2988 N.am    
   8 C8             4.9047     2.2748     0.0378 C.2     
   9 N9             3.9002     3.0989     0.5011 N.pl3   
  10 C10            5.5860     0.1624    -0.7529 C.2     
  11 C11            6.8998     0.6196    -0.8880 C.2     
  12 C12            7.2065     1.9232    -0.5520 C.2     
  13 C13            6.1937     2.7622    -0.0824 C.2     
  14 N14            6.4824     4.0947     0.2658 N.am    
  15 I15            0.8119     6.8126    -3.4854 I       
  16 O16            5.3112    -0.9910    -1.0486 O.2     
  17 F17            1.7477     4.6199     1.3511 F       
  18 C18            3.2520     0.4837    -0.1586 C.3     
  19 S19            7.9908     4.7165    -0.0180 S.o2    
  20 O20            7.9380     6.0273     0.5283 O.2     
  21 O21            8.8775     3.7387     0.5082 O.2     
  22 C22            8.1193     4.7851    -1.8261 C.3     
  23 C23            7.9755    -0.3051    -1.3965 C.3     
  24 C24            9.3970     5.4790    -2.3270 C.3     
  25 C25            9.4670     4.3924    -3.4130 C.3     
  26 C26            8.6688     3.4934    -2.4541 C.3     
  27 C27            8.5372    -1.1232    -0.2320 C.3     
  28 C28            9.6294    -2.0621    -0.7483 C.3     
  29 H29            0.6157     6.0942    -0.4800 H       
  30 H30            3.2210     4.8752    -3.6309 H       
  31 H31            4.4377     3.4136    -2.0685 H       
  32 H32            3.6721     3.1027     1.4439 H       
  33 H33            8.2176     2.2897    -0.6511 H       
  34 H34            5.7979     4.6491     0.6721 H       
  35 H35            2.6805     0.7339    -1.0525 H       
  36 H36            3.2718    -0.5986    -0.0312 H       
  37 H37            2.7845     0.9436     0.7120 H       
  38 H38            7.2090     5.1504    -2.3016 H       
  39 H39            7.5533    -0.9780    -2.1429 H       
  40 H40            8.7757     0.2817    -1.8476 H       
  41 H41            9.2240     6.4802    -2.7217 H       
  42 H42           10.2224     5.4398    -1.6162 H       
  43 H43            8.9254     4.6493    -4.3233 H       
  44 H44           10.4779     4.0341    -3.6075 H       
  45 H45            9.2951     2.9114    -1.7780 H       
  46 H46            7.9080     2.8917    -2.9513 H       
  47 H47            8.9595    -0.4504     0.5144 H       
  48 H48            7.7370    -1.7100     0.2191 H       
  49 H49           10.4296    -1.4753    -1.1994 H       
  50 H50           10.0296    -2.6449     0.0814 H       
  51 H51            9.2071    -2.7349    -1.4947 H       
@<TRIPOS>BOND
   1    1    2 ar
   2    1    6 ar
   3    1   29 1
   4    2    3 ar
   5    2   15 1
   6    3    4 ar
   7    3   30 1
   8    4    5 ar
   9    4   31 1
  10    5    6 ar
  11    5    9 1
  12    6   17 1
  13    7    8 1
  14    7   10 am
  15    7   18 1
  16    8    9 1
  17    8   13 2
  18    9   32 1
  19   10   11 1
  20   10   16 2
  21   11   12 2
  22   11   23 1
  23   12   13 1
  24   12   33 1
  25   13   14 1
  26   14   19 am
  27   14   34 1
  28   18   35 1
  29   18   36 1
  30   18   37 1
  31   19   20 2
  32   19   21 2
  33   19   22 1
  34   22   24 1
  35   22   26 1
  36   22   38 1
  37   23   27 1
  38   23   39 1
  39   23   40 1
  40   24   25 1
  41   24   41 1
  42   24   42 1
  43   25   26 1
  44   25   43 1
  45   25   44 1
  46   26   45 1
  47   26   46 1
  48   27   28 1
  49   27   47 1
  50   27   48 1
  51   28   49 1
  52   28   50 1
  53   28   51 1

#	End of record

