#	Name: ASD01883121
#	Creating user name:	WinNT
#	Creation time:	15. 06. 2019 19:45

#	Modifying user name:	WinNT
#	Modification time:	15. 06. 2019 19:45

#	Program:	/corina/corina34_cracker 3.40 0067  02.08.2006

@<TRIPOS>MOLECULE
ASD01883121
  44   46    0    0    0
SMALL
NO_CHARGES


@<TRIPOS>ATOM
   1 N1            -0.0700     1.2317     1.3489 N.am    
   2 C2            -0.0339    -0.0498     0.9394 C.2     
   3 C3            -1.2425    -0.7526     0.7098 C.2     
   4 C4            -2.4619    -0.0841     0.9185 C.2     
   5 C5            -2.4330     1.2575     1.3474 C.2     
   6 C6            -1.2480     1.8749     1.5551 C.2     
   7 O7             1.0375    -0.6052     0.7659 O.2     
   8 C8            -1.2227    -2.1163     0.2735 C.1     
   9 N9            -1.2069    -3.1982    -0.0727 N.1     
  10 C10            1.1877     1.9457     1.5829 C.3     
  11 C11            1.6317     2.6335     0.2903 C.3     
  12 C12            2.9452     3.3792     0.5346 C.3     
  13 C13            3.3892     4.0670    -0.7580 C.3     
  14 C14           -3.7483    -0.7751     0.6918 C.ar    
  15 C15           -4.6138    -1.0126     1.7623 C.ar    
  16 C16           -5.8122    -1.6566     1.5469 C.ar    
  17 C17           -6.1606    -2.0703     0.2667 C.ar    
  18 C18           -5.3020    -1.8363    -0.8008 C.ar    
  19 C19           -4.1046    -1.1874    -0.5945 C.ar    
  20 O20           -7.3425    -2.7051     0.0584 O.3     
  21 C21           -8.4754    -1.9616     0.0737 C.ar    
  22 N22           -8.4128    -0.6393     0.1804 N.ar    
  23 C23           -9.5119     0.0877     0.1952 C.ar    
  24 N24          -10.7075    -0.4588     0.1059 N.ar    
  25 C25          -10.8507    -1.7718    -0.0032 C.ar    
  26 C26           -9.7246    -2.5725    -0.0281 C.ar    
  27 H27           -3.3569     1.7913     1.5143 H       
  28 H28           -1.2382     2.9035     1.8839 H       
  29 H29            1.0410     2.6947     2.3611 H       
  30 H30            1.9538     1.2380     1.8995 H       
  31 H31            1.7784     1.8845    -0.4879 H       
  32 H32            0.8656     3.3412    -0.0264 H       
  33 H33            2.7985     4.1282     1.3128 H       
  34 H34            3.7113     2.6715     0.8513 H       
  35 H35            4.3249     4.5982    -0.5839 H       
  36 H36            3.5359     3.3180    -1.5362 H       
  37 H37            2.6231     4.7747    -1.0746 H       
  38 H38           -4.3435    -0.6921     2.7576 H       
  39 H39           -6.4819    -1.8406     2.3740 H       
  40 H40           -5.5761    -2.1596    -1.7942 H       
  41 H41           -3.4379    -1.0059    -1.4246 H       
  42 H42           -9.4304     1.1610     0.2833 H       
  43 H43          -11.8350    -2.2102    -0.0754 H       
  44 H44           -9.8103    -3.6455    -0.1165 H       
@<TRIPOS>BOND
   1    1    2 am
   2    1   10 1
   3    1    6 1
   4    2    3 1
   5    2    7 2
   6    3    4 2
   7    3    8 1
   8    4    5 1
   9    4   14 1
  10    5    6 2
  11    5   27 1
  12    6   28 1
  13    8    9 3
  14   10   11 1
  15   10   29 1
  16   10   30 1
  17   11   12 1
  18   11   31 1
  19   11   32 1
  20   12   13 1
  21   12   33 1
  22   12   34 1
  23   13   35 1
  24   13   36 1
  25   13   37 1
  26   14   15 ar
  27   14   19 ar
  28   15   16 ar
  29   15   38 1
  30   16   17 ar
  31   16   39 1
  32   17   18 ar
  33   17   20 1
  34   18   19 ar
  35   18   40 1
  36   19   41 1
  37   20   21 1
  38   21   22 ar
  39   21   26 ar
  40   22   23 ar
  41   23   24 ar
  42   23   42 1
  43   24   25 ar
  44   25   26 ar
  45   25   43 1
  46   26   44 1

#	End of record

