#	Name: ASD00600001
#	Creating user name:	WinNT
#	Creation time:	15. 06. 2019 18:36

#	Modifying user name:	WinNT
#	Modification time:	15. 06. 2019 18:36

#	Program:	/corina/corina34_cracker 3.40 0067  02.08.2006

@<TRIPOS>MOLECULE
ASD00600001
  69   75    0    0    0
SMALL
NO_CHARGES


@<TRIPOS>ATOM
   1 N1            -0.0155     1.2883     0.0091 N.2     
   2 C2             0.0021    -0.0041     0.0020 C.2     
   3 N3             1.3008    -0.4528     0.0627 N.pl3   
   4 C4             2.1150     0.6217     0.0186 C.ar    
   5 C5             1.2526     1.7513    -0.0005 C.ar    
   6 C6             3.4974     0.7830    -0.0063 C.ar    
   7 C7             3.9804     2.0796    -0.0395 C.ar    
   8 C8             3.1377     3.1783    -0.0480 C.ar    
   9 C9             1.7714     3.0499    -0.0292 C.ar    
  10 C10           -1.1264    -0.9975    -0.1259 C.3     
  11 C11           -0.9002    -2.2575     0.7242 C.3     
  12 C12            0.5148    -2.3117     1.3146 C.3     
  13 C13            1.5157    -1.8932     0.2214 C.3     
  14 C14            1.2334    -2.6422    -1.0715 C.3     
  15 C15           -0.2339    -2.8488    -1.4044 C.3     
  16 N16           -0.9419    -3.4148    -0.2211 N.3     
  17 C17           -0.9825    -1.5122    -1.5964 C.3     
  18 C18           -2.3270    -3.7707    -0.5570 C.3     
  19 C19           -2.3297    -4.7818    -1.7052 C.3     
  20 C20           -3.7723    -5.1525    -2.0550 C.3     
  21 N21           -4.3855    -5.8506    -0.9223 N.am    
  22 C22           -5.7239    -5.8338    -0.7649 C.2     
  23 C23           -6.3547    -6.5519     0.4002 C.3     
  24 C24           -7.8757    -6.3782     0.3466 C.3     
  25 C25           -8.5130    -7.1754     1.4876 C.3     
  26 O26           -8.1362    -8.5493     1.3755 O.3     
  27 C27           -6.7284    -8.7775     1.4663 C.3     
  28 C28           -6.0194    -8.0446     0.3245 C.3     
  29 O29           -6.4207    -5.2407    -1.5610 O.2     
  30 C30           -3.7808    -6.0522    -3.2639 C.ar    
  31 C31           -4.0645    -5.5302    -4.5120 C.ar    
  32 C32           -4.0723    -6.3555    -5.6209 C.ar    
  33 C33           -3.7960    -7.7028    -5.4817 C.ar    
  34 C34           -3.5115    -8.2247    -4.2337 C.ar    
  35 C35           -3.4994    -7.3985    -3.1254 C.ar    
  36 H36            4.1641    -0.0666     0.0004 H       
  37 H37            5.0483     2.2395    -0.0590 H       
  38 H38            3.5695     4.1680    -0.0702 H       
  39 H39            1.1245     3.9147    -0.0361 H       
  40 H40           -2.0968    -0.5413     0.0698 H       
  41 H41           -1.6552    -2.3441     1.5056 H       
  42 H42            0.5860    -1.6256     2.1586 H       
  43 H43            0.7355    -3.3269     1.6442 H       
  44 H44            2.5353    -2.0832     0.5568 H       
  45 H45            1.6954    -2.0931    -1.8919 H       
  46 H46            1.7105    -3.6203    -1.0105 H       
  47 H47           -0.3465    -3.4970    -2.2734 H       
  48 H48           -1.9612    -1.6771    -2.0471 H       
  49 H49           -0.3909    -0.8187    -2.1940 H       
  50 H50           -2.8109    -4.2101     0.3153 H       
  51 H51           -2.8689    -2.8749    -0.8604 H       
  52 H52           -1.8458    -4.3424    -2.5774 H       
  53 H53           -1.7878    -5.6776    -1.4018 H       
  54 H54           -4.3377    -4.2463    -2.2725 H       
  55 H55           -3.8282    -6.3249    -0.2856 H       
  56 H56           -5.9731    -6.1380     1.3335 H       
  57 H57           -8.1258    -5.3229     0.4555 H       
  58 H58           -8.2508    -6.7457    -0.6085 H       
  59 H59           -8.1685    -6.7809     2.4435 H       
  60 H60           -9.5981    -7.0902     1.4288 H       
  61 H61           -6.3605    -8.4039     2.4219 H       
  62 H62           -6.5279    -9.8463     1.3922 H       
  63 H63           -6.3571    -8.4458    -0.6311 H       
  64 H64           -4.9419    -8.1810     0.4176 H       
  65 H65           -4.2804    -4.4776    -4.6208 H       
  66 H66           -4.2947    -5.9478    -6.5960 H       
  67 H67           -3.8029    -8.3478    -6.3480 H       
  68 H68           -3.2959    -9.2773    -4.1249 H       
  69 H69           -3.2770    -7.8062    -2.1504 H       
@<TRIPOS>BOND
   1    1    2 2
   2    1    5 1
   3    2    3 1
   4    2   10 1
   5    3    4 1
   6    3   13 1
   7    4    5 ar
   8    4    6 ar
   9    5    9 ar
  10    6    7 ar
  11    6   36 1
  12    7    8 ar
  13    7   37 1
  14    8    9 ar
  15    8   38 1
  16    9   39 1
  17   10   11 1
  18   10   17 1
  19   10   40 1
  20   11   12 1
  21   11   16 1
  22   11   41 1
  23   12   13 1
  24   12   42 1
  25   12   43 1
  26   13   14 1
  27   13   44 1
  28   14   15 1
  29   14   45 1
  30   14   46 1
  31   15   16 1
  32   15   17 1
  33   15   47 1
  34   16   18 1
  35   17   48 1
  36   17   49 1
  37   18   19 1
  38   18   50 1
  39   18   51 1
  40   19   20 1
  41   19   52 1
  42   19   53 1
  43   20   21 1
  44   20   30 1
  45   20   54 1
  46   21   22 am
  47   21   55 1
  48   22   23 1
  49   22   29 2
  50   23   24 1
  51   23   28 1
  52   23   56 1
  53   24   25 1
  54   24   57 1
  55   24   58 1
  56   25   26 1
  57   25   59 1
  58   25   60 1
  59   26   27 1
  60   27   28 1
  61   27   61 1
  62   27   62 1
  63   28   63 1
  64   28   64 1
  65   30   31 ar
  66   30   35 ar
  67   31   32 ar
  68   31   65 1
  69   32   33 ar
  70   32   66 1
  71   33   34 ar
  72   33   67 1
  73   34   35 ar
  74   34   68 1
  75   35   69 1

#	End of record

