#	Name: ASD03240829
#	Creating user name:	WinNT
#	Creation time:	15. 06. 2019 20:35

#	Modifying user name:	WinNT
#	Modification time:	15. 06. 2019 20:35

#	Program:	/corina/corina34_cracker 3.40 0067  02.08.2006

@<TRIPOS>MOLECULE
ASD03240829
  75   82    0    0    0
SMALL
NO_CHARGES


@<TRIPOS>ATOM
   1 C1             1.1185    -0.0838    -0.5930 C.2     
   2 N2            -0.0693     0.0850     0.0147 N.am    
   3 C3            -0.0722     1.3887     0.6837 C.3     
   4 C4             1.2727     2.0107     0.4135 C.ar    
   5 C5             1.8509     3.2061     0.7735 C.ar    
   6 C6             3.1387     3.5040     0.3611 C.ar    
   7 C7             3.8475     2.6025    -0.4135 C.ar    
   8 C8             3.2776     1.4011    -0.7803 C.ar    
   9 C9             1.9800     1.0930    -0.3676 C.ar    
  10 C10           -1.1762    -0.8746     0.0085 C.3     
  11 N11           -2.6898     1.4980     1.8834 N.3     
  12 C12           -2.5419     1.6375     0.4291 C.3     
  13 C13           -1.1839     2.2692     0.1120 C.3     
  14 C14           -0.2766     1.2065     2.1879 C.3     
  15 C15           -1.6630     0.6082     2.4404 C.3     
  16 O16            1.4386    -1.0670    -1.2320 O.2     
  17 C17           -1.6743    -1.0693    -1.4250 C.3     
  18 C18           -2.8092    -2.0607    -1.4322 C.ar    
  19 C19           -4.1117    -1.6180    -1.2848 C.ar    
  20 C20           -5.1551    -2.5208    -1.2910 C.ar    
  21 C21           -4.8945    -3.8824    -1.4462 C.ar    
  22 C22           -3.5792    -4.3225    -1.5943 C.ar    
  23 C23           -2.5448    -3.4093    -1.5918 C.ar    
  24 N24           -9.1809    -5.2573     0.1566 N.pl3   
  25 C25          -10.2220    -6.1457     0.1656 C.2     
  26 N26          -10.2201    -7.2537    -0.5965 N.2     
  27 C27           -9.2234    -7.5475    -1.3911 C.2     
  28 C28           -8.0756    -6.6451    -1.4539 C.ar    
  29 C29           -6.9796    -6.9057    -2.2834 C.ar    
  30 C30           -5.9297    -5.9933    -2.2814 C.ar    
  31 C31           -6.0098    -4.8566    -1.4532 C.ar    
  32 N32           -7.0641    -4.6436    -0.6804 N.ar    
  33 C33           -8.0838    -5.4840    -0.6521 C.ar    
  34 C34          -11.1602    -5.6531     1.0625 C.2     
  35 C35          -10.6639    -4.4649     1.5837 C.2     
  36 N36           -9.4876    -4.2277     1.0544 N.2     
  37 C37           -4.7408    -6.2151    -3.1389 C.ar    
  38 C38           -4.0870    -7.4461    -3.1237 C.ar    
  39 C39           -2.9811    -7.6470    -3.9243 C.ar    
  40 C40           -2.5211    -6.6296    -4.7409 C.ar    
  41 C41           -3.1655    -5.4057    -4.7598 C.ar    
  42 C42           -4.2758    -5.1952    -3.9677 C.ar    
  43 C43          -11.3608    -3.5936     2.5967 C.3     
  44 H44            1.3003     3.9122     1.3774 H       
  45 H45            3.5912     4.4428     0.6444 H       
  46 H46            4.8514     2.8408    -0.7326 H       
  47 H47            3.8338     0.7005    -1.3854 H       
  48 H48           -0.8318    -1.8292     0.4062 H       
  49 H49           -1.9894    -0.4952     0.6273 H       
  50 H50           -2.6719     2.3992     2.3368 H       
  51 H51           -2.6033     0.6547    -0.0382 H       
  52 H52           -3.3378     2.2740     0.0424 H       
  53 H53           -1.1300     3.2609     0.5612 H       
  54 H54           -1.0640     2.3512    -0.9682 H       
  55 H55            0.4867     0.5346     2.5802 H       
  56 H56           -0.2015     2.1736     2.6851 H       
  57 H57           -1.8210     0.4979     3.5132 H       
  58 H58           -1.7299    -0.3685     1.9612 H       
  59 H59           -2.0226    -0.1155    -1.8213 H       
  60 H60           -0.8600    -1.4447    -2.0448 H       
  61 H61           -4.3120    -0.5636    -1.1644 H       
  62 H62           -6.1714    -2.1740    -1.1755 H       
  63 H63           -3.3712    -5.3754    -1.7145 H       
  64 H64           -1.5263    -3.7484    -1.7104 H       
  65 H65           -9.2481    -8.4446    -1.9919 H       
  66 H66           -6.9497    -7.7875    -2.9062 H       
  67 H67          -12.1063    -6.1113     1.3102 H       
  68 H68           -4.4451    -8.2411    -2.4863 H       
  69 H69           -2.4736    -8.6003    -3.9131 H       
  70 H70           -1.6552    -6.7913    -5.3658 H       
  71 H71           -2.8015    -4.6147    -5.3987 H       
  72 H72           -4.7809    -4.2408    -3.9866 H       
  73 H73          -11.0766    -3.9061     3.6015 H       
  74 H74          -11.0699    -2.5544     2.4435 H       
  75 H75          -12.4400    -3.6901     2.4778 H       
@<TRIPOS>BOND
   1    1    2 am
   2    1    9 1
   3    1   16 2
   4    2    3 1
   5    2   10 1
   6    3    4 1
   7    3   13 1
   8    3   14 1
   9    4    5 ar
  10    4    9 ar
  11    5    6 ar
  12    5   44 1
  13    6    7 ar
  14    6   45 1
  15    7    8 ar
  16    7   46 1
  17    8    9 ar
  18    8   47 1
  19   10   17 1
  20   10   48 1
  21   10   49 1
  22   11   12 1
  23   11   15 1
  24   11   50 1
  25   12   13 1
  26   12   51 1
  27   12   52 1
  28   13   53 1
  29   13   54 1
  30   14   15 1
  31   14   55 1
  32   14   56 1
  33   15   57 1
  34   15   58 1
  35   17   18 1
  36   17   59 1
  37   17   60 1
  38   18   19 ar
  39   18   23 ar
  40   19   20 ar
  41   19   61 1
  42   20   21 ar
  43   20   62 1
  44   21   22 ar
  45   21   31 1
  46   22   23 ar
  47   22   63 1
  48   23   64 1
  49   24   25 1
  50   24   33 1
  51   24   36 1
  52   25   26 1
  53   25   34 2
  54   26   27 2
  55   27   28 1
  56   27   65 1
  57   28   29 ar
  58   28   33 ar
  59   29   30 ar
  60   29   66 1
  61   30   31 ar
  62   30   37 1
  63   31   32 ar
  64   32   33 ar
  65   34   35 1
  66   34   67 1
  67   35   36 2
  68   35   43 1
  69   37   38 ar
  70   37   42 ar
  71   38   39 ar
  72   38   68 1
  73   39   40 ar
  74   39   69 1
  75   40   41 ar
  76   40   70 1
  77   41   42 ar
  78   41   71 1
  79   42   72 1
  80   43   73 1
  81   43   74 1
  82   43   75 1

#	End of record

