#	Name: ASD00310158
#	Creating user name:	WinNT
#	Creation time:	15. 06. 2019 18:33

#	Modifying user name:	WinNT
#	Modification time:	15. 06. 2019 18:33

#	Program:	/corina/corina34_cracker 3.40 0067  02.08.2006

@<TRIPOS>MOLECULE
ASD00310158
  45   48    0    0    0
SMALL
NO_CHARGES


@<TRIPOS>ATOM
   1 N1            -0.0154     1.2795     0.0029 N.pl3   
   2 N2             0.0017    -0.0035    -0.0315 N.2     
   3 C3             1.2286    -0.4792    -0.0599 C.2     
   4 C4             2.1240     0.6862    -0.0401 C.ar    
   5 C5             3.5009     0.8770    -0.0526 C.ar    
   6 C6             4.0085     2.1688    -0.0246 C.ar    
   7 C7             3.1376     3.2652     0.0162 C.ar    
   8 C8             1.7848     3.0817     0.0286 C.ar    
   9 C9             1.2548     1.7947     0.0005 C.ar    
  10 C10            1.6252    -1.8965    -0.1020 C.2     
  11 O11            2.8024    -2.1977    -0.1247 O.2     
  12 O12            0.6826    -2.8599    -0.1155 O.3     
  13 C13            5.4758     2.3885    -0.0374 C.ar    
  14 C14            6.0411     3.2826    -0.9445 C.ar    
  15 C15            7.4066     3.4834    -0.9517 C.ar    
  16 C16            8.2136     2.7991    -0.0607 C.ar    
  17 C17            7.6578     1.9104     0.8418 C.ar    
  18 C18            6.2930     1.7058     0.8614 C.ar    
  19 C19            9.7039     3.0223    -0.0737 C.3     
  20 C20           10.1472     3.6980     1.2357 C.3     
  21 C21           11.1375     2.7313     1.9172 C.3     
  22 C22           11.6875     1.8687     0.7542 C.3     
  23 C23           10.4404     1.6685    -0.1423 C.3     
  24 C24           10.0927     3.8927    -1.2704 C.3     
  25 O25            9.6902     3.2469    -2.4799 O.3     
  26 Cl26           3.7858     4.8752     0.0521 Cl      
  27 H27           -0.8235     1.8157     0.0238 H       
  28 H28            4.1689     0.0289    -0.0834 H       
  29 H29            1.1249     3.9361     0.0605 H       
  30 H30            0.9914    -3.7759    -0.1434 H       
  31 H31            5.4120     3.8172    -1.6408 H       
  32 H32            7.8458     4.1759    -1.6545 H       
  33 H33            8.2925     1.3787     1.5353 H       
  34 H34            5.8597     1.0147     1.5693 H       
  35 H35           10.6400     4.6457     1.0186 H       
  36 H36            9.2843     3.8645     1.8806 H       
  37 H37           11.9446     3.2864     2.3953 H       
  38 H38           10.6204     2.1057     2.6447 H       
  39 H39           12.4698     2.4020     0.2142 H       
  40 H40           12.0554     0.9115     1.1237 H       
  41 H41            9.8107     0.8712     0.2527 H       
  42 H42           10.7387     1.4480    -1.1672 H       
  43 H43            9.5965     4.8601    -1.1925 H       
  44 H44           11.1729     4.0381    -1.2783 H       
  45 H45            9.9054     3.7434    -3.2814 H       
@<TRIPOS>BOND
   1    1    2 1
   2    1    9 1
   3    1   27 1
   4    2    3 2
   5    3    4 1
   6    3   10 1
   7    4    5 ar
   8    4    9 ar
   9    5    6 ar
  10    5   28 1
  11    6    7 ar
  12    6   13 1
  13    7    8 ar
  14    7   26 1
  15    8    9 ar
  16    8   29 1
  17   10   11 2
  18   10   12 1
  19   12   30 1
  20   13   14 ar
  21   13   18 ar
  22   14   15 ar
  23   14   31 1
  24   15   16 ar
  25   15   32 1
  26   16   17 ar
  27   16   19 1
  28   17   18 ar
  29   17   33 1
  30   18   34 1
  31   19   20 1
  32   19   23 1
  33   19   24 1
  34   20   21 1
  35   20   35 1
  36   20   36 1
  37   21   22 1
  38   21   37 1
  39   21   38 1
  40   22   23 1
  41   22   39 1
  42   22   40 1
  43   23   41 1
  44   23   42 1
  45   24   25 1
  46   24   43 1
  47   24   44 1
  48   25   45 1

#	End of record

