#	Name: ASD01913659
#	Creating user name:	WinNT
#	Creation time:	15. 06. 2019 20:02

#	Modifying user name:	WinNT
#	Modification time:	15. 06. 2019 20:02

#	Program:	/corina/corina34_cracker 3.40 0067  02.08.2006

@<TRIPOS>MOLECULE
ASD01913659
  39   41    0    0    0
SMALL
NO_CHARGES


@<TRIPOS>ATOM
   1 C1             0.0043     1.4102     0.0973 C.ar    
   2 C2             0.0143     0.0469    -0.1432 C.ar    
   3 C3            -1.1750    -0.6270    -0.3478 C.ar    
   4 C4            -2.3740     0.0598    -0.3129 C.ar    
   5 C5            -2.3852     1.4215    -0.0728 C.ar    
   6 C6            -1.1980     2.0962     0.1382 C.ar    
   7 C7            -3.6933     2.1689    -0.0354 C.3     
   8 O8            -4.2028     2.1710     1.2997 O.3     
   9 C9            -5.3814     2.8065     1.5073 C.ar    
  10 N10           -5.9986     3.3858     0.4892 N.ar    
  11 C11           -7.1454     4.0148     0.6400 C.ar    
  12 C12           -7.7544     4.0919     1.8930 C.ar    
  13 C13           -7.1264     3.4884     2.9928 C.ar    
  14 C14           -5.9286     2.8358     2.7866 C.ar    
  15 C15           -9.0398     4.7981     2.0590 C.2     
  16 N16           -9.6340     5.3747     0.9956 N.am    
  17 O17           -9.5625     4.8597     3.1551 O.2     
  18 F18            1.1662     2.0699     0.2973 F       
  19 C19          -10.8984     5.9591     1.1321 C.ar    
  20 C20          -11.2388     6.6129     2.3090 C.ar    
  21 C21          -12.4870     7.1888     2.4417 C.ar    
  22 C22          -13.3991     7.1143     1.4024 C.ar    
  23 C23          -13.0617     6.4627     0.2280 C.ar    
  24 C24          -11.8124     5.8908     0.0888 C.ar    
  25 F25          -14.6199     7.6775     1.5346 F       
  26 H26            0.9511    -0.4898    -0.1713 H       
  27 H27           -1.1674    -1.6905    -0.5355 H       
  28 H28           -3.3028    -0.4674    -0.4736 H       
  29 H29           -1.2070     3.1597     0.3261 H       
  30 H30           -3.5346     3.1956    -0.3654 H       
  31 H31           -4.4094     1.6813    -0.6968 H       
  32 H32           -7.6189     4.4758    -0.2142 H       
  33 H33           -7.5716     3.5303     3.9759 H       
  34 H34           -5.4172     2.3599     3.6102 H       
  35 H35           -9.1855     5.3846     0.1356 H       
  36 H36          -10.5280     6.6707     3.1201 H       
  37 H37          -12.7521     7.6974     3.3569 H       
  38 H38          -13.7747     6.4054    -0.5812 H       
  39 H39          -11.5495     5.3831    -0.8274 H       
@<TRIPOS>BOND
   1    1    2 ar
   2    1   18 1
   3    1    6 ar
   4    2    3 ar
   5    2   26 1
   6    3    4 ar
   7    3   27 1
   8    4    5 ar
   9    4   28 1
  10    5    6 ar
  11    5    7 1
  12    6   29 1
  13    7    8 1
  14    7   30 1
  15    7   31 1
  16    8    9 1
  17    9   10 ar
  18    9   14 ar
  19   10   11 ar
  20   11   12 ar
  21   11   32 1
  22   12   13 ar
  23   12   15 1
  24   13   14 ar
  25   13   33 1
  26   14   34 1
  27   15   16 am
  28   15   17 2
  29   16   19 1
  30   16   35 1
  31   19   20 ar
  32   19   24 ar
  33   20   21 ar
  34   20   36 1
  35   21   22 ar
  36   21   37 1
  37   22   23 ar
  38   22   25 1
  39   23   24 ar
  40   23   38 1
  41   24   39 1

#	End of record

