#	Name: ASD01884526
#	Creating user name:	WinNT
#	Creation time:	15. 06. 2019 19:48

#	Modifying user name:	WinNT
#	Modification time:	15. 06. 2019 19:48

#	Program:	/corina/corina34_cracker 3.40 0067  02.08.2006

@<TRIPOS>MOLECULE
ASD01884526
  42   44    0    0    0
SMALL
NO_CHARGES


@<TRIPOS>ATOM
   1 C1             0.0293     1.4044    -0.1273 C.2     
   2 C2             0.0260     0.0609     0.0956 C.2     
   3 C3             1.2542    -0.6068     0.2916 C.2     
   4 C4             2.4214     0.0996     0.2551 C.2     
   5 N5             2.4106     1.4375     0.0326 N.am    
   6 C6             1.2527     2.0968    -0.1576 C.2     
   7 O7             1.2647     3.3009    -0.3567 O.2     
   8 C8             3.6761     2.1747    -0.0012 C.3     
   9 C9             4.1321     2.3248    -1.4297 C.ar    
  10 C10            1.2761    -2.0703     0.5367 C.ar    
  11 C11            0.7036    -2.5929     1.6948 C.ar    
  12 C12            1.8642    -2.9253    -0.3935 C.ar    
  13 C13            1.8831    -4.2850    -0.1630 C.ar    
  14 C14            1.3167    -4.8021     0.9940 C.ar    
  15 C15            0.7255    -3.9535     1.9199 C.ar    
  16 O16            1.3360    -6.1424     1.2181 O.3     
  17 C17            0.7353    -6.6065     2.4288 C.3     
  18 C18            4.7633     1.2736    -2.0676 C.ar    
  19 C19            5.1816     1.4113    -3.3782 C.ar    
  20 C20            4.9683     2.5999    -4.0505 C.ar    
  21 C21            4.3361     3.6511    -3.4126 C.ar    
  22 C22            3.9140     3.5120    -2.1039 C.ar    
  23 C23            4.9959    -0.0224    -1.3346 C.3     
  24 H24           -0.8995     1.9327    -0.2840 H       
  25 H25           -0.9045    -0.4866     0.1224 H       
  26 H26            3.3612    -0.4108     0.4050 H       
  27 H27            3.5339     3.1611     0.4403 H       
  28 H28            4.4302     1.6284     0.5654 H       
  29 H29            0.2435    -1.9331     2.4156 H       
  30 H30            2.3044    -2.5236    -1.2942 H       
  31 H31            2.3386    -4.9481    -0.8835 H       
  32 H32            0.2859    -4.3587     2.8194 H       
  33 H33            1.2454    -6.1596     3.2821 H       
  34 H34           -0.3168    -6.3221     2.4447 H       
  35 H35            0.8190    -7.6919     2.4831 H       
  36 H36            5.6754     0.5902    -3.8765 H       
  37 H37            5.2957     2.7077    -5.0740 H       
  38 H38            4.1697     4.5800    -3.9378 H       
  39 H39            3.4202     4.3331    -1.6056 H       
  40 H40            4.1147    -0.6568    -1.4298 H       
  41 H41            5.8587    -0.5323    -1.7630 H       
  42 H42            5.1824     0.1847    -0.2808 H       
@<TRIPOS>BOND
   1    1    2 2
   2    1    6 1
   3    1   24 1
   4    2    3 1
   5    2   25 1
   6    3    4 2
   7    3   10 1
   8    4    5 1
   9    4   26 1
  10    5    6 am
  11    5    8 1
  12    6    7 2
  13    8    9 1
  14    8   27 1
  15    8   28 1
  16    9   18 ar
  17    9   22 ar
  18   10   11 ar
  19   10   12 ar
  20   11   15 ar
  21   11   29 1
  22   12   13 ar
  23   12   30 1
  24   13   14 ar
  25   13   31 1
  26   14   15 ar
  27   14   16 1
  28   15   32 1
  29   16   17 1
  30   17   33 1
  31   17   34 1
  32   17   35 1
  33   18   19 ar
  34   18   23 1
  35   19   20 ar
  36   19   36 1
  37   20   21 ar
  38   20   37 1
  39   21   22 ar
  40   21   38 1
  41   22   39 1
  42   23   40 1
  43   23   41 1
  44   23   42 1

#	End of record

