#	Name: ASD05430574
#	Creating user name:	WinNT
#	Creation time:	15. 06. 2019 21:00

#	Modifying user name:	WinNT
#	Modification time:	15. 06. 2019 21:00

#	Program:	/corina/corina34_cracker 3.40 0067  02.08.2006

@<TRIPOS>MOLECULE
ASD05430574
  34   35    0    0    0
SMALL
NO_CHARGES


@<TRIPOS>ATOM
   1 N1            -0.0158     1.3144     0.0093 N.ar    
   2 C2             0.0021    -0.0041     0.0020 C.ar    
   3 C3             1.0889     2.0319     0.0026 C.ar    
   4 C4             2.3369     1.4172    -0.0126 C.ar    
   5 C5             2.3815     0.0262    -0.0128 C.ar    
   6 C6             1.2046    -0.6909    -0.0091 C.ar    
   7 C7             0.9998     3.5363     0.0110 C.3     
   8 C8             1.2258    -2.1978    -0.0165 C.3     
   9 C9             0.5195    -2.7239     1.2346 C.3     
  10 C10            0.5043    -2.7119    -1.2638 C.3     
  11 C11            0.2380     4.0090    -1.2288 C.3     
  12 C12            0.2613     3.9964     1.2695 C.3     
  13 O13            3.5882     1.9480    -0.0386 O.3     
  14 C14            4.5344     0.9523     0.3884 C.3     
  15 C15            3.8410    -0.3735    -0.0074 C.3     
  16 H16           -0.9283    -0.5526     0.0051 H       
  17 H17            2.0041     3.9597     0.0037 H       
  18 H18            2.2585    -2.5465    -0.0244 H       
  19 H19           -0.5132    -2.3752     1.2425 H       
  20 H20            0.5349    -3.8138     1.2292 H       
  21 H21            1.0335    -2.3577     2.1232 H       
  22 H22            1.0075    -2.3370    -2.1551 H       
  23 H23            0.5197    -3.8018    -1.2692 H       
  24 H24           -0.5284    -2.3631    -1.2559 H       
  25 H25           -0.7663     3.5855    -1.2216 H       
  26 H26            0.1736     5.0971    -1.2228 H       
  27 H27            0.7641     3.6812    -2.1254 H       
  28 H28            0.8040     3.6596     2.1528 H       
  29 H29            0.1969     5.0845     1.2756 H       
  30 H30           -0.7430     3.5729     1.2767 H       
  31 H31            5.4802     1.0664    -0.1413 H       
  32 H32            4.6863     1.0015     1.4666 H       
  33 H33            4.0299    -1.1487     0.7352 H       
  34 H34            4.1593    -0.6990    -0.9978 H       
@<TRIPOS>BOND
   1    1    2 ar
   2    1    3 ar
   3    2    6 ar
   4    2   16 1
   5    3    4 ar
   6    3    7 1
   7    4    5 ar
   8    4   13 1
   9    5    6 ar
  10    5   15 1
  11    6    8 1
  12    7   11 1
  13    7   12 1
  14    7   17 1
  15    8    9 1
  16    8   10 1
  17    8   18 1
  18    9   19 1
  19    9   20 1
  20    9   21 1
  21   10   22 1
  22   10   23 1
  23   10   24 1
  24   11   25 1
  25   11   26 1
  26   11   27 1
  27   12   28 1
  28   12   29 1
  29   12   30 1
  30   13   14 1
  31   14   15 1
  32   14   31 1
  33   14   32 1
  34   15   33 1
  35   15   34 1

#	End of record

