#	Name: ASD03082046
#	Creating user name:	WinNT
#	Creation time:	15. 06. 2019 20:27

#	Modifying user name:	WinNT
#	Modification time:	15. 06. 2019 20:27

#	Program:	/corina/corina34_cracker 3.40 0067  02.08.2006

@<TRIPOS>MOLECULE
ASD03082046
  68   72    0    0    0
SMALL
NO_CHARGES


@<TRIPOS>ATOM
   1 C1            -0.0461     1.3310    -1.0438 C.3     
   2 C2             0.0349    -0.1971    -1.0297 C.3     
   3 N3             0.9942    -0.6471    -2.0465 N.3     
   4 C4             2.3430    -0.1390    -1.7656 C.3     
   5 C5             2.3309     1.3909    -1.8016 C.3     
   6 C6             1.3407     1.9134    -0.7571 C.3     
   7 C7             3.7316     1.9203    -1.4874 C.3     
   8 O8             3.7481     3.3645    -1.6374 O.3     
   9 C9             4.9160     3.9913    -1.3952 C.2     
  10 C10            5.0074     5.4574    -1.5277 C.ar    
  11 O11            5.8938     3.3488    -1.0676 O.2     
  12 C12            4.6019     6.0825    -2.7088 C.ar    
  13 C13            4.6899     7.4535    -2.8263 C.ar    
  14 C14            5.1794     8.2148    -1.7783 C.ar    
  15 C15            5.5841     7.6097    -0.6042 C.ar    
  16 C16            5.4968     6.2326    -0.4660 C.ar    
  17 N17            5.9059     5.6187     0.7212 N.pl3   
  18 C18            0.9959    -2.1119    -2.1569 C.3     
  19 C19           -0.3554    -2.5842    -2.6972 C.3     
  20 C20           -0.3537    -4.1099    -2.8122 C.3     
  21 C21           -1.6847    -4.5751    -3.3443 C.ar    
  22 C22           -1.8775    -4.7036    -4.7071 C.ar    
  23 C23           -3.0984    -5.1302    -5.1952 C.ar    
  24 C24           -4.1263    -5.4288    -4.3205 C.ar    
  25 C25           -3.9332    -5.3012    -2.9577 C.ar    
  26 C26           -2.7109    -4.8787    -2.4694 C.ar    
  27 C27            6.5201     6.2181     1.7789 C.2     
  28 C28            6.7329     5.2470     2.7084 C.2     
  29 N29            6.2615     4.0855     2.2316 N.2     
  30 N30            5.7591     4.2657     1.0601 N.2     
  31 C31            7.3795     5.4412     4.0303 C.ar    
  32 C32            7.5392     4.3611     4.8958 C.ar    
  33 C33            8.1411     4.5473     6.1239 C.ar    
  34 C34            8.5852     5.8033     6.4959 C.ar    
  35 C35            8.4287     6.8791     5.6407 C.ar    
  36 C36            7.8338     6.7030     4.4078 C.ar    
  37 H37           -0.3872     1.6684    -2.0225 H       
  38 H38           -0.7465     1.6654    -0.2784 H       
  39 H39            0.3628    -0.5345    -0.0465 H       
  40 H40           -0.9480    -0.6149    -1.2477 H       
  41 H41            2.6601    -0.4766    -0.7789 H       
  42 H42            3.0365    -0.5145    -2.5180 H       
  43 H43            2.0272     1.7293    -2.7923 H       
  44 H44            1.2968     3.0013    -0.8089 H       
  45 H45            1.6655     1.6080     0.2376 H       
  46 H46            3.9978     1.6583    -0.4633 H       
  47 H47            4.4509     1.4754    -2.1749 H       
  48 H48            4.2202     5.4928    -3.5291 H       
  49 H49            4.3760     7.9358    -3.7402 H       
  50 H50            5.2454     9.2880    -1.8795 H       
  51 H51            5.9648     8.2103     0.2087 H       
  52 H52            1.7883    -2.4241    -2.8372 H       
  53 H53            1.1674    -2.5503    -1.1738 H       
  54 H54           -1.1479    -2.2721    -2.0169 H       
  55 H55           -0.5270    -2.1459    -3.6803 H       
  56 H56            0.4388    -4.4220    -3.4925 H       
  57 H57           -0.1821    -4.5482    -1.8291 H       
  58 H58           -1.0744    -4.4703    -5.3905 H       
  59 H59           -3.2493    -5.2299    -6.2600 H       
  60 H60           -5.0804    -5.7615    -4.7019 H       
  61 H61           -4.7364    -5.5341    -2.2743 H       
  62 H62           -2.5600    -4.7790    -1.4046 H       
  63 H63            6.7865     7.2613     1.8636 H       
  64 H64            7.1925     3.3801     4.6064 H       
  65 H65            8.2651     3.7108     6.7957 H       
  66 H66            9.0556     5.9446     7.4578 H       
  67 H67            8.7766     7.8579     5.9364 H       
  68 H68            7.7124     7.5435     3.7406 H       
@<TRIPOS>BOND
   1    1    2 1
   2    1    6 1
   3    1   37 1
   4    1   38 1
   5    2    3 1
   6    2   39 1
   7    2   40 1
   8    3    4 1
   9    3   18 1
  10    4    5 1
  11    4   41 1
  12    4   42 1
  13    5    6 1
  14    5    7 1
  15    5   43 1
  16    6   44 1
  17    6   45 1
  18    7    8 1
  19    7   46 1
  20    7   47 1
  21    8    9 1
  22    9   10 1
  23    9   11 2
  24   10   12 ar
  25   10   16 ar
  26   12   13 ar
  27   12   48 1
  28   13   14 ar
  29   13   49 1
  30   14   15 ar
  31   14   50 1
  32   15   16 ar
  33   15   51 1
  34   16   17 1
  35   17   27 1
  36   17   30 1
  37   18   19 1
  38   18   52 1
  39   18   53 1
  40   19   20 1
  41   19   54 1
  42   19   55 1
  43   20   21 1
  44   20   56 1
  45   20   57 1
  46   21   22 ar
  47   21   26 ar
  48   22   23 ar
  49   22   58 1
  50   23   24 ar
  51   23   59 1
  52   24   25 ar
  53   24   60 1
  54   25   26 ar
  55   25   61 1
  56   26   62 1
  57   27   28 2
  58   27   63 1
  59   28   29 1
  60   28   31 1
  61   29   30 2
  62   31   32 ar
  63   31   36 ar
  64   32   33 ar
  65   32   64 1
  66   33   34 ar
  67   33   65 1
  68   34   35 ar
  69   34   66 1
  70   35   36 ar
  71   35   67 1
  72   36   68 1

#	End of record

