#	Name: ASD02038624
#	Creating user name:	WinNT
#	Creation time:	15. 06. 2019 20:17

#	Modifying user name:	WinNT
#	Modification time:	15. 06. 2019 20:17

#	Program:	/corina/corina34_cracker 3.40 0067  02.08.2006

@<TRIPOS>MOLECULE
ASD02038624
  51   52    0    0    0
SMALL
NO_CHARGES


@<TRIPOS>ATOM
   1 C1             0.1648     1.1229     1.4372 C.ar    
   2 C2             0.1614    -0.2543     1.2578 C.ar    
   3 N3            -1.0497    -0.9464     1.1755 N.pl3   
   4 C4            -1.0519    -2.3992     0.9863 C.3     
   5 C5            -2.4951    -2.9040     0.9299 C.3     
   6 C6            -2.4973    -4.4212     0.7323 C.3     
   7 N7            -3.8791    -4.9046     0.6784 N.am    
   8 C8            -4.1273    -6.2185     0.5088 C.2     
   9 C9            -5.5488    -6.7157     0.4533 C.3     
  10 C10           -5.5510    -8.2329     0.2557 C.3     
  11 C11           -6.9725    -8.7302     0.2002 C.ar    
  12 C12           -7.6310    -8.8030    -1.0136 C.ar    
  13 C13           -7.6136    -9.1180     1.3625 C.ar    
  14 C14           -8.9162    -9.5742     1.3152 C.ar    
  15 C15           -9.5826    -9.6433     0.0983 C.ar    
  16 C16           -8.9337    -9.2583    -1.0681 C.ar    
  17 N17          -10.9001   -10.1042     0.0469 N.am    
  18 S18          -12.1381    -9.1320     0.5612 S.o2    
  19 O19          -13.3073    -9.9107     0.3470 O.2     
  20 O20          -11.7516    -8.7353     1.8698 O.2     
  21 C21          -12.1009    -7.7149    -0.5706 C.3     
  22 O22           -3.2067    -7.0005     0.4009 O.2     
  23 C23            1.3632     1.8052     1.5178 C.ar    
  24 C24            2.5599     1.1183     1.4200 C.ar    
  25 C25            2.5602    -0.2552     1.2406 C.ar    
  26 C26            1.3640    -0.9425     1.1598 C.ar    
  27 Cl27           4.0640    -1.1138     1.1177 Cl      
  28 Cl28           4.0640     1.9792     1.5217 Cl      
  29 H29           -0.7691     1.6606     1.5092 H       
  30 H30           -1.8891    -0.4650     1.2437 H       
  31 H31           -0.5443    -2.6448     0.0534 H       
  32 H32           -0.5328    -2.8747     1.8184 H       
  33 H33           -3.0026    -2.6584     1.8628 H       
  34 H34           -3.0141    -2.4285     0.0978 H       
  35 H35           -1.9897    -4.6668    -0.2005 H       
  36 H36           -1.9782    -4.8968     1.5645 H       
  37 H37           -4.6155    -4.2792     0.7647 H       
  38 H38           -6.0564    -6.4701     1.3862 H       
  39 H39           -6.0679    -6.2402    -0.3788 H       
  40 H40           -5.0435    -8.4785    -0.6772 H       
  41 H41           -5.0320    -8.7085     1.0879 H       
  42 H42           -7.1261    -8.5032    -1.9200 H       
  43 H43           -7.0948    -9.0644     2.3082 H       
  44 H44           -9.4162    -9.8773     2.2233 H       
  45 H45           -9.4490    -9.3104    -2.0158 H       
  46 H46          -11.0899   -10.9938    -0.2901 H       
  47 H47          -12.1638    -8.0698    -1.5993 H       
  48 H48          -12.9460    -7.0595    -0.3601 H       
  49 H49          -11.1705    -7.1640    -0.4326 H       
  50 H50            1.3658     2.8762     1.6569 H       
  51 H51            1.3642    -2.0134     1.0199 H       
@<TRIPOS>BOND
   1    1    2 ar
   2    1   23 ar
   3    1   29 1
   4    2    3 1
   5    2   26 ar
   6    3    4 1
   7    3   30 1
   8    4    5 1
   9    4   31 1
  10    4   32 1
  11    5    6 1
  12    5   33 1
  13    5   34 1
  14    6    7 1
  15    6   35 1
  16    6   36 1
  17    7    8 am
  18    7   37 1
  19    8    9 1
  20    8   22 2
  21    9   10 1
  22    9   38 1
  23    9   39 1
  24   10   11 1
  25   10   40 1
  26   10   41 1
  27   11   12 ar
  28   11   13 ar
  29   12   16 ar
  30   12   42 1
  31   13   14 ar
  32   13   43 1
  33   14   15 ar
  34   14   44 1
  35   15   16 ar
  36   15   17 1
  37   16   45 1
  38   17   18 am
  39   17   46 1
  40   18   19 2
  41   18   20 2
  42   18   21 1
  43   21   47 1
  44   21   48 1
  45   21   49 1
  46   23   24 ar
  47   23   50 1
  48   24   25 ar
  49   24   28 1
  50   25   26 ar
  51   25   27 1
  52   26   51 1

#	End of record

