#	Name: ASD04882321
#	Creating user name:	WinNT
#	Creation time:	15. 06. 2019 20:54

#	Modifying user name:	WinNT
#	Modification time:	15. 06. 2019 20:54

#	Program:	/corina/corina34_cracker 3.40 0067  02.08.2006

@<TRIPOS>MOLECULE
ASD04882321
  67   71    0    0    0
SMALL
NO_CHARGES


@<TRIPOS>ATOM
   1 N1            -0.1361     1.5550    -0.0364 N.am    
   2 C2            -0.0764     0.1551    -0.0459 C.ar    
   3 C3            -1.2528    -0.5955     0.0294 C.ar    
   4 C4            -1.1951    -1.9845     0.0201 C.ar    
   5 C5             0.0208    -2.6257    -0.0639 C.ar    
   6 C6             1.2011    -1.8810    -0.1400 C.ar    
   7 C7             1.1455    -0.4844    -0.1356 C.ar    
   8 N8            -2.4845     0.0486     0.1145 N.3     
   9 C9            -2.6113     0.7769     1.3846 C.3     
  10 C10           -3.5901    -0.9044    -0.0555 C.3     
  11 C11           -4.9202    -0.1475    -0.0352 C.3     
  12 N12           -5.0470     0.5808     1.2349 N.3     
  13 C13           -3.9414     1.5338     1.4050 C.3     
  14 C14            2.5035    -2.5681    -0.2300 C.2     
  15 O15            3.5298    -1.9194    -0.2962 O.2     
  16 C16            0.8458     2.2674     0.5508 C.2     
  17 C17            0.8491     3.7381     0.4528 C.2     
  18 O18            1.7293     1.6967     1.1617 O.2     
  19 N19            2.5557    -3.9149    -0.2389 N.am    
  20 N20           -0.0685     4.5073    -0.1937 N.2     
  21 C21            0.2709     5.7542    -0.0588 C.2     
  22 O22            1.3967     5.8299     0.6649 O.3     
  23 C23            1.7672     4.5828     0.9968 C.2     
  24 C24           -0.4819     6.9297    -0.6268 C.3     
  25 C25           -1.0147     7.9708     0.3597 C.3     
  26 C26            0.1815     8.3053    -0.5336 C.3     
  27 C27            3.8490    -4.5972    -0.3283 C.3     
  28 C28            3.6286    -6.1112    -0.3196 C.3     
  29 C29            4.9793    -6.8238    -0.4129 C.3     
  30 N30            4.7682    -8.2735    -0.4045 N.am    
  31 C31            4.5679    -9.0881    -1.6088 C.3     
  32 C32            3.9658   -10.4203    -1.1097 C.3     
  33 C33            4.4870   -10.4765     0.3450 C.3     
  34 C34            4.7388    -9.0292     0.7067 C.2     
  35 O35            4.8855    -8.6107     1.8355 O.2     
  36 H36           -0.8820     2.0115    -0.4560 H       
  37 H37           -2.1059    -2.5620     0.0791 H       
  38 H38            0.0623    -3.7049    -0.0706 H       
  39 H39            2.0559     0.0936    -0.1943 H       
  40 H40           -2.5825     0.0698     2.2136 H       
  41 H41           -1.7884     1.4850     1.4815 H       
  42 H42           -3.4808    -1.4220    -1.0086 H       
  43 H43           -3.5725    -1.6306     0.7571 H       
  44 H44           -4.9489     0.5596    -0.8642 H       
  45 H45           -5.7431    -0.8556    -0.1321 H       
  46 H46           -5.9394     1.0475     1.2966 H       
  47 H47           -4.0507     2.0514     2.3580 H       
  48 H48           -3.9590     2.2600     0.5923 H       
  49 H49            1.7370    -4.4323    -0.1861 H       
  50 H50            2.6328     4.3028     1.5788 H       
  51 H51           -1.0838     6.7198    -1.5109 H       
  52 H52           -1.9670     8.4460     0.1243 H       
  53 H53           -0.8208     7.8055     1.4195 H       
  54 H54            1.1625     8.3600    -0.0615 H       
  55 H55            0.0163     9.0005    -1.3566 H       
  56 H56            4.3492    -4.3082    -1.2526 H       
  57 H57            4.4682    -4.3152     0.5233 H       
  58 H58            3.1284    -6.4002     0.6048 H       
  59 H59            3.0094    -6.3931    -1.1712 H       
  60 H60            5.4795    -6.5348    -1.3372 H       
  61 H61            5.5985    -6.5419     0.4387 H       
  62 H62            3.8750    -8.5923    -2.2886 H       
  63 H63            5.5213    -9.2677    -2.1056 H       
  64 H64            2.8765   -10.3890    -1.1329 H       
  65 H65            4.3429   -11.2611    -1.6919 H       
  66 H66            3.7350   -10.9118     1.0031 H       
  67 H67            5.4153   -11.0455     0.3960 H       
@<TRIPOS>BOND
   1    1    2 1
   2    1   16 am
   3    1   36 1
   4    2    3 ar
   5    2    7 ar
   6    3    4 ar
   7    3    8 1
   8    4    5 ar
   9    4   37 1
  10    5    6 ar
  11    5   38 1
  12    6    7 ar
  13    6   14 1
  14    7   39 1
  15    8    9 1
  16    8   10 1
  17    9   13 1
  18    9   40 1
  19    9   41 1
  20   10   11 1
  21   10   42 1
  22   10   43 1
  23   11   12 1
  24   11   44 1
  25   11   45 1
  26   12   13 1
  27   12   46 1
  28   13   47 1
  29   13   48 1
  30   14   15 2
  31   14   19 am
  32   16   18 2
  33   16   17 1
  34   17   20 1
  35   17   23 2
  36   19   27 1
  37   19   49 1
  38   20   21 2
  39   21   22 1
  40   21   24 1
  41   22   23 1
  42   23   50 1
  43   24   25 1
  44   24   26 1
  45   24   51 1
  46   25   26 1
  47   25   52 1
  48   25   53 1
  49   26   54 1
  50   26   55 1
  51   27   28 1
  52   27   56 1
  53   27   57 1
  54   28   29 1
  55   28   58 1
  56   28   59 1
  57   29   30 1
  58   29   60 1
  59   29   61 1
  60   30   31 1
  61   30   34 am
  62   31   32 1
  63   31   62 1
  64   31   63 1
  65   32   33 1
  66   32   64 1
  67   32   65 1
  68   33   34 1
  69   33   66 1
  70   33   67 1
  71   34   35 2

#	End of record

