#	Name: ASD03081128
#	Creating user name:	WinNT
#	Creation time:	15. 06. 2019 20:27

#	Modifying user name:	WinNT
#	Modification time:	15. 06. 2019 20:27

#	Program:	/corina/corina34_cracker 3.40 0067  02.08.2006

@<TRIPOS>MOLECULE
ASD03081128
  25   27    0    0    0
SMALL
NO_CHARGES


@<TRIPOS>ATOM
   1 O1            -0.0144     1.2085     0.0087 O.3     
   2 N2             0.0021    -0.0041     0.0020 N.2     
   3 C3             1.2344    -0.4424    -0.0121 C.2     
   4 N4             2.0457     0.6355    -0.0141 N.2     
   5 C5             1.2414     1.6827    -0.0008 C.2     
   6 C6             1.6457     3.1029     0.0026 C.ar    
   7 C7             0.6747     4.1092     0.0173 C.ar    
   8 C8             1.0612     5.4374     0.0203 C.ar    
   9 C9             2.4080     5.7691     0.0087 C.ar    
  10 C10            3.3724     4.7735    -0.0064 C.ar    
  11 C11            2.9992     3.4463    -0.0032 C.ar    
  12 F12            2.7814     7.0674     0.0117 F       
  13 F13            0.1261     6.4125     0.0341 F       
  14 F14           -0.6368     3.7851     0.0281 F       
  15 C15            3.0143    -2.2120    -0.0377 C.ar    
  16 C16            1.6617    -1.8647    -0.0234 C.ar    
  17 C17            0.7228    -2.9022    -0.0196 C.ar    
  18 C18            1.1965    -4.2030    -0.0302 C.ar    
  19 N19            2.4962    -4.4308    -0.0435 N.ar    
  20 N20            3.3615    -3.4838    -0.0470 N.ar    
  21 H21            4.4194     5.0382    -0.0157 H       
  22 H22            3.7530     2.6729    -0.0097 H       
  23 H23            3.7721    -1.4425    -0.0456 H       
  24 H24           -0.3371    -2.6949    -0.0083 H       
  25 H25            0.5028    -5.0308    -0.0273 H       
@<TRIPOS>BOND
   1    1    2 1
   2    1    5 1
   3    2    3 2
   4    3    4 1
   5    3   16 1
   6    4    5 2
   7    5    6 1
   8    6    7 ar
   9    6   11 ar
  10    7    8 ar
  11    7   14 1
  12    8    9 ar
  13    8   13 1
  14    9   10 ar
  15    9   12 1
  16   10   11 ar
  17   10   21 1
  18   11   22 1
  19   15   16 ar
  20   15   20 ar
  21   15   23 1
  22   16   17 ar
  23   17   18 ar
  24   17   24 1
  25   18   19 ar
  26   18   25 1
  27   19   20 ar

#	End of record

