#	Name: ASD01913353
#	Creating user name:	WinNT
#	Creation time:	15. 06. 2019 20:01

#	Modifying user name:	WinNT
#	Modification time:	15. 06. 2019 20:01

#	Program:	/corina/corina34_cracker 3.40 0067  02.08.2006

@<TRIPOS>MOLECULE
ASD01913353
  38   40    0    0    0
SMALL
NO_CHARGES


@<TRIPOS>ATOM
   1 C1            -0.0166     1.3764     0.0096 C.2     
   2 C2             0.0021    -0.0041     0.0020 C.2     
   3 C3             1.2499    -0.6727    -0.0135 C.2     
   4 N4             2.3635     0.0159    -0.0204 N.2     
   5 C5             2.3515     1.3566    -0.0131 C.2     
   6 N6             1.1686     2.0507     0.0019 N.pl3   
   7 C7             3.3713     2.2994    -0.0173 C.2     
   8 C8             2.7833     3.5556    -0.0047 C.2     
   9 N9             1.4769     3.4160     0.0068 N.2     
  10 C10            3.5233     4.8684    -0.0042 C.3     
  11 C11           -1.2215    -0.7480     0.0102 C.1     
  12 C12           -2.2246    -1.3579     0.0169 C.1     
  13 C13           -3.4482    -2.1018     0.0250 C.ar    
  14 C14           -3.4197    -3.4987     0.0172 C.ar    
  15 C15           -4.6032    -4.2101     0.0251 C.ar    
  16 C16           -5.8509    -2.1542     0.0543 C.ar    
  17 C17           -4.6754    -1.4333     0.0466 C.ar    
  18 C18            4.0859     5.1373    -1.4014 C.3     
  19 C19            2.5635     5.9948     0.3846 C.3     
  20 C20            4.6718     4.8061     1.0047 C.3     
  21 F21           -4.5784    -5.5608     0.0181 F       
  22 C22           -5.8182    -3.5393     0.0407 C.ar    
  23 F23           -6.9735    -4.2397     0.0480 F       
  24 H24           -0.9539     1.9131     0.0170 H       
  25 H25            1.2833    -1.7522    -0.0192 H       
  26 H26            4.4311     2.0918    -0.0282 H       
  27 H27           -2.4743    -4.0208     0.0047 H       
  28 H28           -6.7993    -1.6378     0.0710 H       
  29 H29           -4.7030    -0.3538     0.0572 H       
  30 H30            3.2677     5.1817    -2.1202 H       
  31 H31            4.6211     6.0868    -1.4010 H       
  32 H32            4.7697     4.3349    -1.6784 H       
  33 H33            2.1628     5.8032     1.3799 H       
  34 H34            3.0988     6.9443     0.3849 H       
  35 H35            1.7453     6.0392    -0.3342 H       
  36 H36            5.3556     4.0037     0.7278 H       
  37 H37            5.2071     5.7556     1.0051 H       
  38 H38            4.2711     4.6146     2.0001 H       
@<TRIPOS>BOND
   1    1    2 2
   2    1    6 1
   3    1   24 1
   4    2    3 1
   5    2   11 1
   6    3    4 2
   7    3   25 1
   8    4    5 1
   9    5    6 1
  10    5    7 2
  11    6    9 1
  12    7    8 1
  13    7   26 1
  14    8    9 2
  15    8   10 1
  16   10   18 1
  17   10   19 1
  18   10   20 1
  19   11   12 3
  20   12   13 1
  21   13   14 ar
  22   13   17 ar
  23   14   15 ar
  24   14   27 1
  25   15   22 ar
  26   15   21 1
  27   16   17 ar
  28   16   22 ar
  29   16   28 1
  30   17   29 1
  31   18   30 1
  32   18   31 1
  33   18   32 1
  34   19   33 1
  35   19   34 1
  36   19   35 1
  37   20   36 1
  38   20   37 1
  39   20   38 1
  40   22   23 1

#	End of record

