#	Name: ASD07930652
#	Creating user name:	WinNT
#	Creation time:	15. 06. 2019 21:12

#	Modifying user name:	WinNT
#	Modification time:	15. 06. 2019 21:12

#	Program:	/corina/corina34_cracker 3.40 0067  02.08.2006

@<TRIPOS>MOLECULE
ASD07930652
  50   52    0    0    0
SMALL
NO_CHARGES


@<TRIPOS>ATOM
   1 C1            -0.0342     1.4581     0.0424 C.3     
   2 N2             0.7953    -0.4134    -2.1302 N.2     
   3 N3            -0.8904    -1.7835    -1.2685 N.pl3   
   4 C4            -0.9150    -2.8271    -0.2383 C.3     
   5 C5            -1.2300    -2.1885     1.1215 C.3     
   6 S6             0.0062    -0.8913     1.4434 S.o2    
   7 N7            -0.0140    -0.0067     0.0315 N.am    
   8 C8            -0.0112    -0.7260    -1.1552 C.2     
   9 C9             0.4501    -3.5154    -0.1755 C.3     
  10 C10           -1.9764    -3.8423    -0.5755 C.ar    
  11 C11           -2.8068    -3.6380    -1.6597 C.ar    
  12 C12           -3.7847    -4.5743    -1.9703 C.ar    
  13 C13           -3.9250    -5.7140    -1.1894 C.ar    
  14 C14           -3.0923    -5.9142    -0.1058 C.ar    
  15 C15           -2.1147    -4.9822     0.1989 C.ar    
  16 O16           -0.4576     0.0117     2.4378 O.2     
  17 O17            1.3141    -1.4440     1.5003 O.2     
  18 N18           -4.6274    -4.3692    -3.0681 N.am    
  19 C19           -5.0470    -5.4195    -3.8011 C.2     
  20 O20           -4.6175    -6.5323    -3.5695 O.2     
  21 C21           -6.0330    -5.2171    -4.8904 C.ar    
  22 N22           -6.4962    -3.9975    -5.1355 N.ar    
  23 F23           -1.3009    -5.1803     1.2590 F       
  24 C24           -7.3699    -3.7670    -6.0893 C.ar    
  25 C25           -7.8474    -4.8123    -6.8885 C.ar    
  26 C26           -7.3797    -6.1130    -6.6575 C.ar    
  27 C27           -6.4559    -6.3088    -5.6460 C.ar    
  28 C28           -8.8276    -4.5489    -7.9567 C.2     
  29 C29           -9.3235    -3.1460    -8.1952 C.3     
  30 O30           -9.2352    -5.4609    -8.6436 O.2     
  31 H31            0.9883     1.8356     0.0393 H       
  32 H32           -0.5581     1.8209    -0.8419 H       
  33 H33           -0.5479     1.8077     0.9380 H       
  34 H34            1.4071     0.3331    -2.0332 H       
  35 H35           -1.4883    -1.8387    -2.0303 H       
  36 H36           -2.2269    -1.7485     1.0987 H       
  37 H37           -1.1799    -2.9460     1.9037 H       
  38 H38            1.2166    -2.7805     0.0704 H       
  39 H39            0.4311    -4.2908     0.5903 H       
  40 H40            0.6749    -3.9652    -1.1426 H       
  41 H41           -2.6962    -2.7508    -2.2655 H       
  42 H42           -4.6849    -6.4430    -1.4290 H       
  43 H43           -3.2010    -6.8005     0.5018 H       
  44 H44           -4.9097    -3.4711    -3.3017 H       
  45 H45           -7.7237    -2.7606    -6.2582 H       
  46 H46           -7.7287    -6.9412    -7.2564 H       
  47 H47           -6.0731    -7.2973    -5.4395 H       
  48 H48           -8.6758    -2.6496    -8.9178 H       
  49 H49          -10.3412    -3.1815    -8.5838 H       
  50 H50           -9.3121    -2.5921    -7.2565 H       
@<TRIPOS>BOND
   1    1    7 1
   2    1   31 1
   3    1   32 1
   4    1   33 1
   5    2    8 2
   6    2   34 1
   7    3    4 1
   8    3    8 1
   9    3   35 1
  10    4    5 1
  11    4    9 1
  12    4   10 1
  13    5    6 1
  14    5   36 1
  15    5   37 1
  16    6    7 am
  17    6   16 2
  18    6   17 2
  19    7    8 1
  20    9   38 1
  21    9   39 1
  22    9   40 1
  23   10   11 ar
  24   10   15 ar
  25   11   12 ar
  26   11   41 1
  27   12   13 ar
  28   12   18 1
  29   13   14 ar
  30   13   42 1
  31   14   15 ar
  32   14   43 1
  33   15   23 1
  34   18   19 am
  35   18   44 1
  36   19   20 2
  37   19   21 1
  38   21   22 ar
  39   21   27 ar
  40   22   24 ar
  41   24   25 ar
  42   24   45 1
  43   25   26 ar
  44   25   28 1
  45   26   27 ar
  46   26   46 1
  47   27   47 1
  48   28   29 1
  49   28   30 2
  50   29   48 1
  51   29   49 1
  52   29   50 1

#	End of record

