#	Name: ASD00069015
#	Creating user name:	WinNT
#	Creation time:	15. 06. 2019 18:29

#	Modifying user name:	WinNT
#	Modification time:	15. 06. 2019 18:29

#	Program:	/corina/corina34_cracker 3.40 0067  02.08.2006

@<TRIPOS>MOLECULE
ASD00069015
  41   45    0    0    0
SMALL
NO_CHARGES


@<TRIPOS>ATOM
   1 C1            -0.0169     1.3952     0.0097 C.ar    
   2 C2             0.0021    -0.0041     0.0020 C.ar    
   3 C3             1.2106    -0.6848    -0.0127 C.ar    
   4 C4             2.4040     0.0366    -0.0202 C.ar    
   5 C5             2.3727     1.4435    -0.0128 C.ar    
   6 C6             1.1467     2.1065     0.0024 C.ar    
   7 C7             3.8222    -0.3442    -0.0358 C.2     
   8 N8             4.5280     0.7631    -0.0371 N.2     
   9 N9             3.6761     1.8718    -0.0232 N.pl3   
  10 C10            4.3567    -1.7201    -0.0479 C.2     
  11 N11            3.6299    -2.8121    -0.0468 N.2     
  12 C12            4.4402    -3.8984    -0.0608 C.ar    
  13 C13            5.7655    -3.4284    -0.0712 C.ar    
  14 N14            5.6861    -2.0490    -0.0679 N.pl3   
  15 C15            4.1996    -5.2763    -0.0665 C.ar    
  16 C16            5.2490    -6.1505    -0.0820 C.ar    
  17 C17            6.5568    -5.6866    -0.0918 C.ar    
  18 C18            6.8184    -4.3325    -0.0869 C.ar    
  19 C19           -1.2738    -0.7615     0.0101 C.ar    
  20 C20           -2.4901    -0.0821     0.0253 C.ar    
  21 C21           -3.6741    -0.7918     0.0328 C.ar    
  22 C22           -3.6544    -2.1747     0.0257 C.ar    
  23 C23           -2.4495    -2.8544     0.0106 C.ar    
  24 C24           -1.2600    -2.1550    -0.0033 C.ar    
  25 C25           -4.9905    -0.0584     0.0493 C.3     
  26 F26           -5.4104     0.1755    -1.2645 F       
  27 F27           -5.9475    -0.8329     0.7139 F       
  28 F28           -4.8356     1.1629     0.7139 F       
  29 H29           -0.9624     1.9171     0.0170 H       
  30 H30            1.2272    -1.7647    -0.0179 H       
  31 H31            1.1182     3.1861     0.0081 H       
  32 H32            3.9619     2.7987    -0.0213 H       
  33 H33            6.4325    -1.4294    -0.0733 H       
  34 H34            3.1857    -5.6484    -0.0582 H       
  35 H35            5.0590    -7.2137    -0.0863 H       
  36 H36            7.3756    -6.3908    -0.1033 H       
  37 H37            7.8382    -3.9771    -0.0946 H       
  38 H38           -2.5066     0.9977     0.0316 H       
  39 H39           -4.5831    -2.7260     0.0324 H       
  40 H40           -2.4400    -3.9343     0.0055 H       
  41 H41           -0.3200    -2.6866    -0.0154 H       
@<TRIPOS>BOND
   1    1    2 ar
   2    1    6 ar
   3    1   29 1
   4    2    3 ar
   5    2   19 1
   6    3    4 ar
   7    3   30 1
   8    4    5 ar
   9    4    7 1
  10    5    6 ar
  11    5    9 1
  12    6   31 1
  13    7    8 2
  14    7   10 1
  15    8    9 1
  16    9   32 1
  17   10   11 2
  18   10   14 1
  19   11   12 1
  20   12   13 ar
  21   12   15 ar
  22   13   14 1
  23   13   18 ar
  24   14   33 1
  25   15   16 ar
  26   15   34 1
  27   16   17 ar
  28   16   35 1
  29   17   18 ar
  30   17   36 1
  31   18   37 1
  32   19   20 ar
  33   19   24 ar
  34   20   21 ar
  35   20   38 1
  36   21   22 ar
  37   21   25 1
  38   22   23 ar
  39   22   39 1
  40   23   24 ar
  41   23   40 1
  42   24   41 1
  43   25   26 1
  44   25   27 1
  45   25   28 1

#	End of record

