#	Name: ASD01813310
#	Creating user name:	WinNT
#	Creation time:	15. 06. 2019 19:30

#	Modifying user name:	WinNT
#	Modification time:	15. 06. 2019 19:30

#	Program:	/corina/corina34_cracker 3.40 0067  02.08.2006

@<TRIPOS>MOLECULE
ASD01813310
  52   55    0    0    0
SMALL
NO_CHARGES


@<TRIPOS>ATOM
   1 C1            -0.0184     1.5028     0.0103 C.3     
   2 C2             0.0021    -0.0041     0.0020 C.ar    
   3 C3             0.0059    -0.6970    -1.1978 C.ar    
   4 N4             0.0237    -2.0120    -1.2184 N.ar    
   5 C5             0.0391    -2.7257    -0.0995 C.ar    
   6 C6             0.0367    -2.0952     1.1427 C.ar    
   7 C7             0.0230    -0.7103     1.1947 C.ar    
   8 C8             0.0257     0.0113     2.5177 C.3     
   9 F9            -0.5111    -0.8223     3.5047 F       
  10 C10            1.4397     0.3798     2.8860 C.ar    
  11 C11            2.3675    -0.6147     3.1383 C.ar    
  12 C12            3.6639    -0.2830     3.4760 C.ar    
  13 C13            4.0375     1.0569     3.5627 C.ar    
  14 C14            3.0985     2.0547     3.3075 C.ar    
  15 C15            1.8064     1.7113     2.9651 C.ar    
  16 C16            5.4293     1.4197     3.9257 C.2     
  17 C17            5.8511     2.6960     4.0311 C.2     
  18 S18            7.5551     2.6674     4.4775 S.3     
  19 C19            7.5392     0.9583     4.4801 C.2     
  20 N20            6.3664     0.5179     4.1806 N.2     
  21 C21            0.0583    -4.2055    -0.1723 C.2     
  22 O22            0.0724    -4.8638     0.8490 O.2     
  23 N23            0.0603    -4.8212    -1.3711 N.am    
  24 C24            0.0793    -6.2843    -1.4431 C.3     
  25 H25            0.6781    -6.6819    -0.6236 H       
  26 C26           -1.3516    -6.8212    -1.3395 C.3     
  27 C27           -1.3294    -8.3440    -1.4945 C.3     
  28 O28           -0.7287    -8.6855    -2.7454 O.3     
  29 C29            0.6258    -8.2504    -2.8803 C.3     
  30 C30            0.6842    -6.7238    -2.7800 C.3     
  31 H31            0.1154    -6.2841    -3.5992 H       
  32 O32            2.0439    -6.2903    -2.8544 O.3     
  33 H33            1.0042     1.8801     0.0026 H       
  34 H34           -0.5455     1.8639    -0.8728 H       
  35 H35           -0.5286     1.8543     0.9071 H       
  36 H36           -0.0062    -0.1499    -2.1289 H       
  37 H37            0.0489    -2.6773     2.0523 H       
  38 H38           -0.5770     0.9162     2.4392 H       
  39 H39            2.0768    -1.6526     3.0711 H       
  40 H40            4.3874    -1.0602     3.6731 H       
  41 H41            3.3826     3.0945     3.3732 H       
  42 H42            1.0791     2.4836     2.7628 H       
  43 H43            5.2508     3.5793     3.8704 H       
  44 H44            8.3917     0.3350     4.7058 H       
  45 H45            0.0490    -4.2957    -2.1863 H       
  46 H46           -1.7691    -6.5600    -0.3671 H       
  47 H47           -1.9628    -6.3835    -2.1288 H       
  48 H48           -0.7515    -8.7838    -0.6817 H       
  49 H49           -2.3494    -8.7273    -1.4645 H       
  50 H50            1.2292    -8.6890    -2.0855 H       
  51 H51            1.0144    -8.5663    -3.8484 H       
  52 H52            2.4902    -6.5349    -3.6766 H       
@<TRIPOS>BOND
   1    1    2 1
   2    1   33 1
   3    1   34 1
   4    1   35 1
   5    2    7 ar
   6    2    3 ar
   7    3    4 ar
   8    3   36 1
   9    4    5 ar
  10    5    6 ar
  11    5   21 1
  12    6    7 ar
  13    6   37 1
  14    7    8 1
  15    8    9 1
  16    8   10 1
  17    8   38 1
  18   10   15 ar
  19   10   11 ar
  20   11   12 ar
  21   11   39 1
  22   12   13 ar
  23   12   40 1
  24   13   14 ar
  25   13   16 1
  26   14   15 ar
  27   14   41 1
  28   15   42 1
  29   16   20 1
  30   16   17 2
  31   17   18 1
  32   17   43 1
  33   18   19 1
  34   19   20 2
  35   19   44 1
  36   21   22 2
  37   21   23 am
  38   23   24 1
  39   23   45 1
  40   24   25 1
  41   24   30 1
  42   24   26 1
  43   26   27 1
  44   26   46 1
  45   26   47 1
  46   27   28 1
  47   27   48 1
  48   27   49 1
  49   28   29 1
  50   29   30 1
  51   29   50 1
  52   29   51 1
  53   30   31 1
  54   30   32 1
  55   32   52 1

#	End of record

