#	Name: ASD03730671
#	Creating user name:	WinNT
#	Creation time:	15. 06. 2019 20:44

#	Modifying user name:	WinNT
#	Modification time:	15. 06. 2019 20:44

#	Program:	/corina/corina34_cracker 3.40 0067  02.08.2006

@<TRIPOS>MOLECULE
ASD03730671
  62   68    0    0    0
SMALL
NO_CHARGES


@<TRIPOS>ATOM
   1 O1            -0.2214     1.5983     3.3786 O.3     
   2 C2            -0.2345     0.1589     3.4129 C.3     
   3 O3             0.5168    -0.2182     2.2441 O.3     
   4 C4             1.3741     0.8189     2.0107 C.ar    
   5 C5             0.9188     1.9360     2.7072 C.ar    
   6 C6             2.5259     0.9008     1.2490 C.ar    
   7 C7             3.2355     2.0953     1.1702 C.ar    
   8 C8             2.7654     3.2074     1.8623 C.ar    
   9 C9             1.6208     3.1270     2.6278 C.ar    
  10 O10            4.3889     2.3814     0.5009 O.3     
  11 C11            3.7159     4.3345     1.5591 C.3     
  12 C12            4.5133     3.8094     0.3573 C.3     
  13 N13            3.4376     6.5324     2.1195 N.am    
  14 C14            2.9971     5.6132     1.2373 C.2     
  15 C15            4.6055     4.6608     2.7215 C.ar    
  16 C16            5.5105     3.9245     3.4737 C.ar    
  17 C17            6.2018     4.5352     4.5197 C.ar    
  18 C18            5.9802     5.8690     4.7996 C.ar    
  19 C19            5.0801     6.6005     4.0519 C.ar    
  20 C20            4.3825     6.0040     3.0029 C.ar    
  21 O21            2.1806     5.7850     0.3571 O.2     
  22 C22            2.9789     7.9235     2.1486 C.3     
  23 O23            0.4982     7.8987     2.6845 O.3     
  24 C24            1.7812     8.0386     3.0559 C.2     
  25 C25            1.8158     8.2986     4.3752 C.2     
  26 C26            0.4754     8.3162     4.8246 C.2     
  27 C27           -0.2982     8.0659     3.7529 C.2     
  28 C28           -1.8031     7.9867     3.7515 C.3     
  29 F29           -2.3366     9.2548     3.4976 F       
  30 F30           -2.2223     7.0967     2.7568 F       
  31 F31           -2.2474     7.5350     4.9988 F       
  32 C32            6.2544     2.1102     1.9286 C.ar    
  33 C33            5.7420     2.4918     3.1653 C.ar    
  34 C34            5.4487     1.5058     4.1139 C.ar    
  35 C35            5.6811     0.1855     3.7823 C.ar    
  36 C36            6.1954    -0.1190     2.5252 C.ar    
  37 N37            6.4622     0.8390     1.6501 N.ar    
  38 N38            6.4324    -1.4447     2.1841 N.pl3   
  39 C39            5.9207    -2.5226     3.0341 C.3     
  40 C40            7.1941    -1.7649     0.9743 C.3     
  41 H41            0.2533    -0.2070     4.3164 H       
  42 H42           -1.2559    -0.2163     3.3492 H       
  43 H43            2.8769     0.0319     0.7121 H       
  44 H44            1.2709     3.9953     3.1662 H       
  45 H45            5.5575     4.1155     0.4219 H       
  46 H46            4.0677     4.1446    -0.5793 H       
  47 H47            6.9070     3.9672     5.1084 H       
  48 H48            6.5149     6.3430     5.6095 H       
  49 H49            4.9151     7.6430     4.2810 H       
  50 H50            3.7797     8.5623     2.5211 H       
  51 H51            2.7033     8.2364     1.1415 H       
  52 H52            2.6982     8.4619     4.9761 H       
  53 H53            0.1374     8.4957     5.8345 H       
  54 H54            6.4798     2.8633     1.1881 H       
  55 H55            5.0506     1.7709     5.0822 H       
  56 H56            5.4666    -0.6015     4.4901 H       
  57 H57            5.3065    -2.0983     3.8285 H       
  58 H58            5.3181    -3.2040     2.4336 H       
  59 H59            6.7567    -3.0673     3.4729 H       
  60 H60            8.2544    -1.8286     1.2187 H       
  61 H61            6.8554    -2.7205     0.5740 H       
  62 H62            7.0391    -0.9838     0.2300 H       
@<TRIPOS>BOND
   1    1    2 1
   2    1    5 1
   3    2    3 1
   4    2   41 1
   5    2   42 1
   6    3    4 1
   7    4    5 ar
   8    4    6 ar
   9    5    9 ar
  10    6    7 ar
  11    6   43 1
  12    7    8 ar
  13    7   10 1
  14    8    9 ar
  15    8   11 1
  16    9   44 1
  17   10   12 1
  18   11   12 1
  19   11   14 1
  20   11   15 1
  21   12   45 1
  22   12   46 1
  23   13   14 am
  24   13   20 1
  25   13   22 1
  26   14   21 2
  27   15   16 ar
  28   15   20 ar
  29   16   17 ar
  30   16   33 1
  31   17   18 ar
  32   17   47 1
  33   18   19 ar
  34   18   48 1
  35   19   20 ar
  36   19   49 1
  37   22   24 1
  38   22   50 1
  39   22   51 1
  40   23   24 1
  41   23   27 1
  42   24   25 2
  43   25   26 1
  44   25   52 1
  45   26   27 2
  46   26   53 1
  47   27   28 1
  48   28   29 1
  49   28   30 1
  50   28   31 1
  51   32   33 ar
  52   32   37 ar
  53   32   54 1
  54   33   34 ar
  55   34   35 ar
  56   34   55 1
  57   35   36 ar
  58   35   56 1
  59   36   37 ar
  60   36   38 1
  61   38   39 1
  62   38   40 1
  63   39   57 1
  64   39   58 1
  65   39   59 1
  66   40   60 1
  67   40   61 1
  68   40   62 1

#	End of record

