#	Name: ASD01911445
#	Creating user name:	WinNT
#	Creation time:	15. 06. 2019 19:57

#	Modifying user name:	WinNT
#	Modification time:	15. 06. 2019 19:57

#	Program:	/corina/corina34_cracker 3.40 0067  02.08.2006

@<TRIPOS>MOLECULE
ASD01911445
  32   34    0    0    0
SMALL
NO_CHARGES


@<TRIPOS>ATOM
   1 N1            -0.0169     1.3963     0.0097 N.2     
   2 N2             0.0021    -0.0041     0.0020 N.pl3   
   3 C3             1.2261     1.8307     0.0002 C.2     
   4 C4             2.0834     0.7183    -0.0140 C.2     
   5 C5             1.3066    -0.4066    -0.0126 C.2     
   6 C6             1.7890    -1.7990    -0.0243 C.2     
   7 C7             1.6492     3.2535     0.0038 C.ar    
   8 C8            -1.1707    -0.8820     0.0089 C.3     
   9 C9            -1.5866    -1.1759    -1.4094 C.2     
  10 O10           -2.6454    -1.9654    -1.6485 O.3     
  11 O11           -0.9669    -0.7007    -2.3314 O.2     
  12 C12            0.6934     4.2670     0.0189 C.ar    
  13 C13            3.0035     3.5801    -0.0022 C.ar    
  14 C14            3.3913     4.9048     0.0012 C.ar    
  15 C15            2.4382     5.9070     0.0109 C.ar    
  16 C16            1.0922     5.5883     0.0221 C.ar    
  17 C17            3.0827    -2.1765     0.0574 C.2     
  18 C18            3.2873    -3.5406     0.0273 C.2     
  19 C19            2.1768    -4.2776    -0.0779 C.2     
  20 S20            0.7682    -3.2266    -0.1391 S.3     
  21 Cl21           4.8701    -4.2477     0.1186 Cl      
  22 H22            3.1630     0.7466    -0.0241 H       
  23 H23           -0.9234    -1.8147     0.5157 H       
  24 H24           -1.9899    -0.3898     0.5332 H       
  25 H25           -2.8739    -2.1251    -2.5744 H       
  26 H26           -0.3578     4.0192     0.0277 H       
  27 H27            3.7485     2.7983    -0.0090 H       
  28 H28            4.4409     5.1591    -0.0034 H       
  29 H29            2.7460     6.9423     0.0138 H       
  30 H30            0.3521     6.3748     0.0296 H       
  31 H31            3.8929    -1.4672     0.1395 H       
  32 H32            2.1488    -5.3566    -0.1162 H       
@<TRIPOS>BOND
   1    1    2 1
   2    1    3 2
   3    2    8 1
   4    2    5 1
   5    3    4 1
   6    3    7 1
   7    4    5 2
   8    4   22 1
   9    5    6 1
  10    6   17 2
  11    6   20 1
  12    7   12 ar
  13    7   13 ar
  14    8    9 1
  15    8   23 1
  16    8   24 1
  17    9   10 1
  18    9   11 2
  19   10   25 1
  20   12   16 ar
  21   12   26 1
  22   13   14 ar
  23   13   27 1
  24   14   15 ar
  25   14   28 1
  26   15   16 ar
  27   15   29 1
  28   16   30 1
  29   17   18 1
  30   17   31 1
  31   18   19 2
  32   18   21 1
  33   19   20 1
  34   19   32 1

#	End of record

