#	Name: ASD01901259
#	Creating user name:	WinNT
#	Creation time:	15. 06. 2019 19:53

#	Modifying user name:	WinNT
#	Modification time:	15. 06. 2019 19:53

#	Program:	/corina/corina34_cracker 3.40 0067  02.08.2006

@<TRIPOS>MOLECULE
ASD01901259
  45   48    0    0    0
SMALL
NO_CHARGES


@<TRIPOS>ATOM
   1 C1             1.7155     1.0800     0.3061 C.ar    
   2 C2             1.9627    -0.2759     0.3572 C.ar    
   3 C3             3.2632    -0.7433     0.4307 C.ar    
   4 C4             4.3245     0.1444     0.4533 C.ar    
   5 C5             4.0927     1.5031     0.4027 C.ar    
   6 C6             2.7822     1.9825     0.3280 C.ar    
   7 C7             2.5336     3.3917     0.2747 C.1     
   8 C8             2.3297     4.5471     0.2310 C.1     
   9 C9             2.0811     5.9563     0.1777 C.ar    
  10 C10            0.5332     7.7927     0.0586 C.ar    
  11 C11            0.7692     6.4341     0.1093 C.ar    
  12 C12            3.1495     6.8575     0.1998 C.ar    
  13 C13            2.9062     8.2148     0.1488 C.ar    
  14 C14            1.5993     8.6868     0.0754 C.ar    
  15 F15           -0.7344     8.2553    -0.0076 F       
  16 N16            1.3562    10.0648     0.0233 N.am    
  17 C17            1.1915    10.7605     1.1636 C.2     
  18 C18            0.8705    12.8358    -0.1965 C.ar    
  19 N19            1.0557    12.0172    -1.2941 N.am    
  20 C20            1.2876    10.6888    -1.1545 C.2     
  21 O21            1.4410    10.0377    -2.1724 O.2     
  22 O22            1.2507    10.2082     2.2466 O.2     
  23 F23            3.9382     9.0865     0.1705 F       
  24 C24            0.9362    12.2141     1.0747 C.ar    
  25 C25            1.0244    12.4639    -2.6906 C.3     
  26 C26            0.6280    14.2028    -0.2062 C.ar    
  27 N27            0.7754    12.8922     2.2025 N.ar    
  28 C28            0.5460    14.1818     2.2053 C.ar    
  29 C29            0.4668    14.8681     1.0086 C.ar    
  30 C30            0.5182    15.0749    -1.4335 C.3     
  31 H31            0.7003     1.4432     0.2446 H       
  32 H32            1.1394    -0.9746     0.3403 H       
  33 H33            3.4507    -1.8061     0.4709 H       
  34 H34            5.3368    -0.2276     0.5110 H       
  35 H35            4.9220     2.1947     0.4212 H       
  36 H36           -0.0587     5.7407     0.0959 H       
  37 H37            4.1641     6.4919     0.2571 H       
  38 H38            1.8590    13.1405    -2.8744 H       
  39 H39            1.1051    11.5999    -3.3503 H       
  40 H40            0.0860    12.9831    -2.8850 H       
  41 H41            0.4197    14.7058     3.1400 H       
  42 H42            0.2778    15.9333     1.0001 H       
  43 H43           -0.4995    15.0300    -1.8212 H       
  44 H44            0.7618    16.1043    -1.1707 H       
  45 H45            1.2130    14.7201    -2.1947 H       
@<TRIPOS>BOND
   1    1    2 ar
   2    1    6 ar
   3    1   31 1
   4    2    3 ar
   5    2   32 1
   6    3    4 ar
   7    3   33 1
   8    4    5 ar
   9    4   34 1
  10    5    6 ar
  11    5   35 1
  12    6    7 1
  13    7    8 3
  14    8    9 1
  15    9   12 ar
  16    9   11 ar
  17   10   11 ar
  18   10   14 ar
  19   10   15 1
  20   11   36 1
  21   12   13 ar
  22   12   37 1
  23   13   14 ar
  24   13   23 1
  25   14   16 1
  26   16   17 am
  27   16   20 am
  28   17   24 1
  29   17   22 2
  30   18   19 1
  31   18   24 ar
  32   18   26 ar
  33   19   20 am
  34   19   25 1
  35   20   21 2
  36   24   27 ar
  37   25   38 1
  38   25   39 1
  39   25   40 1
  40   26   29 ar
  41   26   30 1
  42   27   28 ar
  43   28   29 ar
  44   28   41 1
  45   29   42 1
  46   30   43 1
  47   30   44 1
  48   30   45 1

#	End of record

