#	Name: ASD03920019
#	Creating user name:	WinNT
#	Creation time:	15. 06. 2019 20:47

#	Modifying user name:	WinNT
#	Modification time:	15. 06. 2019 20:47

#	Program:	/corina/corina34_cracker 3.40 0067  02.08.2006

@<TRIPOS>MOLECULE
ASD03920019
  58   61    0    0    0
SMALL
NO_CHARGES


@<TRIPOS>ATOM
   1 C1             0.0987     1.5694     0.1881 C.2     
   2 C2             0.1701     0.0648     0.2346 C.3     
   3 O3             1.1189     2.2252     0.1888 O.2     
   4 N4            -1.0988     2.1861     0.1403 N.am    
   5 C5            -1.1682     3.6487     0.0951 C.3     
   6 C6            -2.4828     4.0769    -0.5601 C.3     
   7 C7            -3.6590     3.5355     0.2549 C.3     
   8 C8            -3.5930     4.0933     1.6781 C.3     
   9 C9            -2.2784     3.6651     2.3333 C.3     
  10 C10           -1.1022     4.2066     1.5183 C.3     
  11 N11           -4.7192     3.5749     2.4585 N.pl3   
  12 N12           -5.9534     4.2069     2.6664 N.2     
  13 N13           -6.6822     3.4418     3.4022 N.2     
  14 C14           -5.9996     2.3233     3.7012 C.2     
  15 C15           -4.7704     2.3957     3.1100 C.2     
  16 C16           -6.4958     1.2045     4.5250 C.2     
  17 O17           -5.8422     0.1837     4.6210 O.2     
  18 N18           -7.6735     1.3140     5.1711 N.am    
  19 C19           -8.2484     0.1624     5.8797 C.3     
  20 C20           -8.5523     0.5737     7.3238 C.3     
  21 C21           -9.4438     1.8176     7.3188 C.3     
  22 C22           -8.7088     2.9713     6.6326 C.3     
  23 C23           -8.4039     2.5887     5.1854 C.3     
  24 C24            1.6128    -0.3686     0.2762 C.ar    
  25 C25            2.2516    -0.5318     1.4924 C.ar    
  26 C26            3.5760    -0.9297     1.5301 C.ar    
  27 C27            4.2620    -1.1639     0.3530 C.ar    
  28 C28            3.6255    -1.0013    -0.8627 C.ar    
  29 C29            2.2979    -0.6091    -0.9022 C.ar    
  30 F30            1.6735    -0.4558    -2.0904 F       
  31 Cl31           1.3913    -0.2369     2.9711 Cl      
  32 H32           -0.3436    -0.2960     1.1257 H       
  33 H33           -0.3082    -0.3492    -0.6531 H       
  34 H34           -1.9146     1.6614     0.1357 H       
  35 H35           -0.3302     4.0345    -0.4855 H       
  36 H36           -2.5344     5.1652    -0.5937 H       
  37 H37           -2.5297     3.6795    -1.5740 H       
  38 H38           -4.5955     3.8405    -0.2119 H       
  39 H39           -3.6073     2.4472     0.2885 H       
  40 H40           -3.6447     5.1816     1.6445 H       
  41 H41           -2.2315     4.0625     3.3472 H       
  42 H42           -2.2268     2.5768     2.3669 H       
  43 H43           -0.1657     3.9015     1.9851 H       
  44 H44           -1.1539     5.2948     1.4847 H       
  45 H45           -3.9888     1.6519     3.1569 H       
  46 H46           -9.1697    -0.1474     5.3864 H       
  47 H47           -7.5350    -0.6617     5.8769 H       
  48 H48           -9.0671    -0.2408     7.8333 H       
  49 H49           -7.6199     0.7964     7.8426 H       
  50 H50          -10.3655     1.6017     6.7785 H       
  51 H51           -9.6818     2.0979     8.3449 H       
  52 H52           -9.3350     3.8633     6.6501 H       
  53 H53           -7.7749     3.1714     7.1578 H       
  54 H54           -7.7930     3.3650     4.7246 H       
  55 H55           -9.3381     2.4808     4.6343 H       
  56 H56            4.0744    -1.0570     2.4797 H       
  57 H57            5.2962    -1.4737     0.3835 H       
  58 H58            4.1621    -1.1845    -1.7819 H       
@<TRIPOS>BOND
   1    1    2 1
   2    1    3 2
   3    1    4 am
   4    2   24 1
   5    2   32 1
   6    2   33 1
   7    4    5 1
   8    4   34 1
   9    5    6 1
  10    5   10 1
  11    5   35 1
  12    6    7 1
  13    6   36 1
  14    6   37 1
  15    7    8 1
  16    7   38 1
  17    7   39 1
  18    8    9 1
  19    8   11 1
  20    8   40 1
  21    9   10 1
  22    9   41 1
  23    9   42 1
  24   10   43 1
  25   10   44 1
  26   11   12 1
  27   11   15 1
  28   12   13 2
  29   13   14 1
  30   14   15 2
  31   14   16 1
  32   15   45 1
  33   16   17 2
  34   16   18 am
  35   18   19 1
  36   18   23 1
  37   19   20 1
  38   19   46 1
  39   19   47 1
  40   20   21 1
  41   20   48 1
  42   20   49 1
  43   21   22 1
  44   21   50 1
  45   21   51 1
  46   22   23 1
  47   22   52 1
  48   22   53 1
  49   23   54 1
  50   23   55 1
  51   24   25 ar
  52   24   29 ar
  53   25   26 ar
  54   25   31 1
  55   26   27 ar
  56   26   56 1
  57   27   28 ar
  58   27   57 1
  59   28   29 ar
  60   28   58 1
  61   29   30 1

#	End of record

