#	Name: ASD07930611
#	Creating user name:	WinNT
#	Creation time:	15. 06. 2019 21:12

#	Modifying user name:	WinNT
#	Modification time:	15. 06. 2019 21:12

#	Program:	/corina/corina34_cracker 3.40 0067  02.08.2006

@<TRIPOS>MOLECULE
ASD07930611
  42   44    0    0    0
SMALL
NO_CHARGES


@<TRIPOS>ATOM
   1 C1            -0.0502     1.4821    -0.0095 C.3     
   2 N2             0.7773    -0.3947    -2.1783 N.2     
   3 N3            -0.8979    -1.7689    -1.3026 N.pl3   
   4 C4            -0.9127    -2.8082    -0.2679 C.3     
   5 C5            -1.2240    -2.1653     1.0907 C.3     
   6 S6             0.0077    -0.8612     1.4011 S.o2    
   7 N7            -0.0234     0.0174    -0.0144 N.am    
   8 C8            -0.0230    -0.7069    -1.1980 C.2     
   9 C9             0.4557    -3.4900    -0.2089 C.3     
  10 C10           -1.9711    -3.8296    -0.5957 C.ar    
  11 N11           -2.9583    -4.0398     0.2535 N.ar    
  12 C12           -3.9094    -4.9268     0.0069 C.ar    
  13 C13           -3.8960    -5.6711    -1.1670 C.ar    
  14 C14           -2.8730    -5.4730    -2.0779 C.ar    
  15 C15           -1.8982    -4.5296    -1.7841 C.ar    
  16 O16           -0.4553     0.0439     2.3939 O.2     
  17 O17            1.3184    -1.4077     1.4540 O.2     
  18 N18           -4.9338    -5.1167     0.9332 N.am    
  19 C19           -4.8978    -4.4761     2.1185 C.2     
  20 O20           -3.9302    -3.8091     2.4181 O.2     
  21 C21           -6.0597    -4.5887     3.0715 C.3     
  22 C22           -5.9584    -3.8382     4.4009 C.3     
  23 C23           -6.9034    -3.3345     3.3081 C.3     
  24 H24            0.9705     1.8643    -0.0192 H       
  25 H25           -0.5801     1.8387    -0.8928 H       
  26 H26           -0.5611     1.8332     0.8870 H       
  27 H27            0.7641    -0.9120    -2.9987 H       
  28 H28           -1.4992    -1.8300    -2.0613 H       
  29 H29           -2.2231    -1.7299     1.0708 H       
  30 H30           -1.1667    -2.9193     1.8757 H       
  31 H31            1.2201    -2.7506     0.0302 H       
  32 H32            0.4440    -4.2622     0.5602 H       
  33 H33            0.6780    -3.9428    -1.1752 H       
  34 H34           -4.6731    -6.3943    -1.3654 H       
  35 H35           -2.8362    -6.0369    -2.9982 H       
  36 H36           -1.0867    -4.3506    -2.4739 H       
  37 H37           -5.6725    -5.7097     0.7247 H       
  38 H38           -6.5743    -5.5496     3.0740 H       
  39 H39           -6.4066    -4.3051     5.2779 H       
  40 H40           -5.0512    -3.2630     4.5862 H       
  41 H41           -6.6180    -2.4279     2.7745 H       
  42 H42           -7.9733    -3.4700     3.4663 H       
@<TRIPOS>BOND
   1    1    7 1
   2    1   24 1
   3    1   25 1
   4    1   26 1
   5    2    8 2
   6    2   27 1
   7    3    4 1
   8    3    8 1
   9    3   28 1
  10    4    5 1
  11    4    9 1
  12    4   10 1
  13    5    6 1
  14    5   29 1
  15    5   30 1
  16    6    7 am
  17    6   16 2
  18    6   17 2
  19    7    8 1
  20    9   31 1
  21    9   32 1
  22    9   33 1
  23   10   11 ar
  24   10   15 ar
  25   11   12 ar
  26   12   13 ar
  27   12   18 1
  28   13   14 ar
  29   13   34 1
  30   14   15 ar
  31   14   35 1
  32   15   36 1
  33   18   19 am
  34   18   37 1
  35   19   20 2
  36   19   21 1
  37   21   22 1
  38   21   23 1
  39   21   38 1
  40   22   23 1
  41   22   39 1
  42   22   40 1
  43   23   41 1
  44   23   42 1

#	End of record

