#	Name: ASD05740005
#	Creating user name:	WinNT
#	Creation time:	15. 06. 2019 21:02

#	Modifying user name:	WinNT
#	Modification time:	15. 06. 2019 21:02

#	Program:	/corina/corina34_cracker 3.40 0067  02.08.2006

@<TRIPOS>MOLECULE
ASD05740005
  52   55    0    0    0
SMALL
NO_CHARGES


@<TRIPOS>ATOM
   1 C1             1.3926     1.3690     1.1794 C.ar    
   2 C2             1.0068     3.3454     0.0169 C.ar    
   3 C3             1.9952     5.5277    -0.0412 C.ar    
   4 C4             0.7195     6.0976     0.0470 C.ar    
   5 C5            -0.4179     5.2721     0.1144 C.ar    
   6 C6            -0.2619     3.8939     0.0988 C.ar    
   7 C7             0.5433     7.5512     0.0653 C.2     
   8 C8            -0.7198     8.0436     0.1527 C.2     
   9 C9            -1.8145     7.1577     0.2227 C.2     
  10 O10           -1.6465     5.8263     0.2002 O.3     
  11 C11           -0.9503     9.5327     0.1754 C.3     
  12 C12           -1.2444    10.0168    -1.2212 C.ar    
  13 C13           -0.2317    10.5247    -2.0249 C.ar    
  14 O14           -2.9418     7.6124     0.3012 O.2     
  15 C15           -2.7607    10.4170    -3.0302 C.ar    
  16 N16           -1.7686    10.8989    -3.7614 N.ar    
  17 C17           -0.5335    10.9594    -3.2992 C.ar    
  18 O18            1.1576     1.9959     0.0017 O.3     
  19 N19           -4.0475    10.3715    -3.5577 N.am    
  20 S20           -4.3322    10.9191    -5.0944 S.o2    
  21 O21           -5.7307    10.7437    -5.2755 O.2     
  22 O22           -3.7469    12.2137    -5.1192 O.2     
  23 C23            1.7309     8.4758    -0.0103 C.3     
  24 N24            1.4470     0.0471     1.2073 N.ar    
  25 C25            1.6751    -0.5969     2.3402 C.ar    
  26 C26            1.8579     0.1304     3.5058 C.ar    
  27 C27            1.7943     1.5134     3.4398 C.ar    
  28 N28            1.5676     2.0936     2.2727 N.ar    
  29 C29           -3.4048     9.7807    -6.1596 C.3     
  30 C30           -3.5901    10.1864    -7.6232 C.3     
  31 C31           -2.5289     9.9602    -1.7343 C.ar    
  32 F32           -3.5432     9.4685    -0.9895 F       
  33 C33            2.1315     4.1685    -0.0559 C.ar    
  34 F34            3.3623     3.6179    -0.1410 F       
  35 H35            2.8689     6.1604    -0.0931 H       
  36 H36           -1.1277     3.2503     0.1500 H       
  37 H37           -1.7962     9.7596     0.8242 H       
  38 H38           -0.0584    10.0328     0.5530 H       
  39 H39            0.7819    10.5791    -1.6559 H       
  40 H40            0.2513    11.3549    -3.9270 H       
  41 H41           -4.7778    10.0191    -3.0254 H       
  42 H42            2.6461     7.8872    -0.0744 H       
  43 H43            1.6432     9.1084    -0.8936 H       
  44 H44            1.7624     9.1005     0.8824 H       
  45 H45            1.7180    -1.6759     2.3566 H       
  46 H46            2.0453    -0.3695     4.4447 H       
  47 H47            1.9319     2.1100     4.3294 H       
  48 H48           -2.3465     9.8230    -5.9021 H       
  49 H49           -3.7737     8.7654    -6.0145 H       
  50 H50           -4.6484    10.1442    -7.8807 H       
  51 H51           -3.2212    11.2018    -7.7683 H       
  52 H52           -3.0329     9.5024    -8.2632 H       
@<TRIPOS>BOND
   1    1   24 ar
   2    1   18 1
   3    1   28 ar
   4    2   18 1
   5    2   33 ar
   6    2    6 ar
   7    3    4 ar
   8    3   33 ar
   9    3   35 1
  10    4    5 ar
  11    4    7 1
  12    5    6 ar
  13    5   10 1
  14    6   36 1
  15    7    8 2
  16    7   23 1
  17    8    9 1
  18    8   11 1
  19    9   10 1
  20    9   14 2
  21   11   12 1
  22   11   37 1
  23   11   38 1
  24   12   13 ar
  25   12   31 ar
  26   13   17 ar
  27   13   39 1
  28   15   16 ar
  29   15   19 1
  30   15   31 ar
  31   16   17 ar
  32   17   40 1
  33   19   20 am
  34   19   41 1
  35   20   21 2
  36   20   22 2
  37   20   29 1
  38   23   42 1
  39   23   43 1
  40   23   44 1
  41   24   25 ar
  42   25   26 ar
  43   25   45 1
  44   26   27 ar
  45   26   46 1
  46   27   28 ar
  47   27   47 1
  48   29   30 1
  49   29   48 1
  50   29   49 1
  51   30   50 1
  52   30   51 1
  53   30   52 1
  54   31   32 1
  55   33   34 1

#	End of record

