#	Name: ASD07300429
#	Creating user name:	WinNT
#	Creation time:	15. 06. 2019 21:09

#	Modifying user name:	WinNT
#	Modification time:	15. 06. 2019 21:09

#	Program:	/corina/corina34_cracker 3.40 0067  02.08.2006

@<TRIPOS>MOLECULE
ASD07300429
  48   53    0    0    0
SMALL
NO_CHARGES


@<TRIPOS>ATOM
   1 C1            -0.0169     1.3941     0.0097 C.ar    
   2 C2             0.0021    -0.0041     0.0020 C.ar    
   3 C3             1.2199    -0.6674    -0.0136 C.ar    
   4 C4             2.3808     0.0923    -0.0210 C.ar    
   5 C5             2.2878     1.4713    -0.0127 C.ar    
   6 N6             1.1161     2.0768     0.0026 N.ar    
   7 C7            -2.1139     0.6622     0.0347 C.2     
   8 N8            -1.3542     1.7734     0.0301 N.am    
   9 N9            -1.3234    -0.4279     0.0129 N.am    
  10 O10           -3.3304     0.6453     0.0513 O.2     
  11 C11           -1.7801    -1.8199     0.0099 C.3     
  12 C12           -1.9248    -2.3123     1.4513 C.3     
  13 N13           -3.4932     6.8834     0.0902 N.pl3   
  14 C14           -4.8311     6.5802     0.1058 C.2     
  15 C15           -4.9980     5.2492     0.0995 C.2     
  16 C16           -3.6615     4.6469     0.0780 C.ar    
  17 C17           -3.1930     3.3321     0.0643 C.ar    
  18 C18           -1.8318     3.0925     0.0444 C.ar    
  19 C19           -0.9322     4.1567     0.0389 C.ar    
  20 C20           -1.3849     5.4570     0.0532 C.ar    
  21 C21           -2.7504     5.7178     0.0729 C.ar    
  22 C22           -2.9658     8.1657     0.0863 C.2     
  23 N23           -1.6895     8.4531     0.0704 N.2     
  24 C24           -1.5253     9.8015     0.0714 C.ar    
  25 C25           -2.8086    10.3737     0.0893 C.ar    
  26 N26           -3.7011     9.3158     0.0925 N.pl3   
  27 C27           -0.4023    10.6322     0.0588 C.ar    
  28 C28           -0.5632    11.9997     0.0640 C.ar    
  29 C29           -1.8321    12.5593     0.0822 C.ar    
  30 C30           -2.9515    11.7529     0.0943 C.ar    
  31 H31            1.2635    -1.7465    -0.0195 H       
  32 H32            3.3475    -0.3890    -0.0328 H       
  33 H33            3.1908     2.0638    -0.0185 H       
  34 H34           -2.7440    -1.8851    -0.4948 H       
  35 H35           -1.0528    -2.4398    -0.5145 H       
  36 H36           -2.2645    -3.3480     1.4491 H       
  37 H37           -0.9608    -2.2472     1.9560 H       
  38 H38           -2.6520    -1.6924     1.9757 H       
  39 H39           -5.6312     7.3055     0.1210 H       
  40 H40           -5.9398     4.7207     0.1090 H       
  41 H41           -3.8898     2.5070     0.0699 H       
  42 H42            0.1296     3.9598     0.0237 H       
  43 H43           -0.6792     6.2745     0.0496 H       
  44 H44           -4.6690     9.3798     0.1000 H       
  45 H45            0.5888    10.2034     0.0453 H       
  46 H46            0.3054    12.6416     0.0542 H       
  47 H47           -1.9447    13.6334     0.0864 H       
  48 H48           -3.9368    12.1949     0.1077 H       
@<TRIPOS>BOND
   1    1    2 ar
   2    1    6 ar
   3    1    8 1
   4    2    3 ar
   5    2    9 1
   6    3    4 ar
   7    3   31 1
   8    4    5 ar
   9    4   32 1
  10    5    6 ar
  11    5   33 1
  12    7    8 am
  13    7    9 am
  14    7   10 2
  15    8   18 1
  16    9   11 1
  17   11   12 1
  18   11   34 1
  19   11   35 1
  20   12   36 1
  21   12   37 1
  22   12   38 1
  23   13   14 1
  24   13   21 1
  25   13   22 1
  26   14   15 2
  27   14   39 1
  28   15   16 1
  29   15   40 1
  30   16   17 ar
  31   16   21 ar
  32   17   18 ar
  33   17   41 1
  34   18   19 ar
  35   19   20 ar
  36   19   42 1
  37   20   21 ar
  38   20   43 1
  39   22   23 2
  40   22   26 1
  41   23   24 1
  42   24   25 ar
  43   24   27 ar
  44   25   26 1
  45   25   30 ar
  46   26   44 1
  47   27   28 ar
  48   27   45 1
  49   28   29 ar
  50   28   46 1
  51   29   30 ar
  52   29   47 1
  53   30   48 1

#	End of record

