#	Name: ASD03320148
#	Creating user name:	WinNT
#	Creation time:	15. 06. 2019 20:36

#	Modifying user name:	WinNT
#	Modification time:	15. 06. 2019 20:36

#	Program:	/corina/corina34_cracker 3.40 0067  02.08.2006

@<TRIPOS>MOLECULE
ASD03320148
  52   55    0    0    0
SMALL
NO_CHARGES


@<TRIPOS>ATOM
   1 C1            -0.0610     1.5016    -0.1115 C.2     
   2 C2            -0.0202     0.0271    -0.1409 C.ar    
   3 C3             1.1819    -0.6448    -0.4030 C.ar    
   4 C4             1.1692    -2.0345    -0.4195 C.ar    
   5 C5            -0.0389    -2.7076    -0.1745 C.ar    
   6 N6            -1.1528    -2.0331     0.0686 N.ar    
   7 C7            -1.1771    -0.7171     0.0978 C.ar    
   8 O8             0.9524     2.1421    -0.3155 O.2     
   9 N9            -1.2226     2.1388     0.1359 N.am    
  10 N10            3.8750    -4.4182    -0.9591 N.pl3   
  11 N11            2.5499    -4.1035    -0.6322 N.2     
  12 C12            2.4132    -2.7957    -0.6922 C.2     
  13 C13            3.6568    -2.2464    -1.0610 C.2     
  14 C14            4.5297    -3.2656    -1.2167 C.2     
  15 C15            4.4522    -5.7639    -1.0071 C.3     
  16 N16           -0.0661    -4.0905    -0.1878 N.3     
  17 C17           -0.4740    -4.6236     1.1249 C.3     
  18 C18           -1.7114    -5.5158     0.8915 C.3     
  19 C19           -1.5926    -5.8926    -0.6087 C.3     
  20 C20           -1.0063    -4.5921    -1.2125 C.3     
  21 O21           -1.6538    -6.6842     1.7121 O.3     
  22 C22           -1.2420     3.5328     0.2690 C.ar    
  23 C23           -2.3512     4.2553    -0.1503 C.ar    
  24 C24           -2.3698     5.6297    -0.0182 C.ar    
  25 C25           -1.2807     6.2887     0.5331 C.ar    
  26 C26           -0.1720     5.5676     0.9518 C.ar    
  27 C27           -0.1543     4.1926     0.8257 C.ar    
  28 O28           -1.2997     7.6421     0.6628 O.3     
  29 C29           -0.1445     8.2549     1.2389 C.3     
  30 F30            0.0526     7.7562     2.5310 F       
  31 F31            0.9765     7.9683     0.4524 F       
  32 Cl32          -0.3855    10.0401     1.3139 Cl      
  33 H33            2.0940    -0.0968    -0.5878 H       
  34 H34           -2.1059    -0.2061     0.3045 H       
  35 H35           -2.0451     1.6319     0.2218 H       
  36 H36            3.8738    -1.1971    -1.1959 H       
  37 H37            5.5685    -3.1746    -1.4978 H       
  38 H38            4.3330    -6.1748    -2.0096 H       
  39 H39            5.5123    -5.7136    -0.7588 H       
  40 H40            3.9407    -6.4044    -0.2887 H       
  41 H41            0.3350    -5.2160     1.5522 H       
  42 H42           -0.7297    -3.8030     1.7952 H       
  43 H43           -2.6292    -4.9580     1.0772 H       
  44 H44           -0.9092    -6.7304    -0.7479 H       
  45 H45           -2.5713    -6.1142    -1.0343 H       
  46 H46           -1.7988    -3.8648    -1.3889 H       
  47 H47           -0.4764    -4.8096    -2.1399 H       
  48 H48           -2.4086    -7.2788     1.6034 H       
  49 H49           -3.1991     3.7424    -0.5799 H       
  50 H50           -3.2323     6.1918    -0.3446 H       
  51 H51            0.6757     6.0814     1.3806 H       
  52 H52            0.7070     3.6310     1.1561 H       
@<TRIPOS>BOND
   1    1    2 1
   2    1    8 2
   3    1    9 am
   4    2    3 ar
   5    2    7 ar
   6    3    4 ar
   7    3   33 1
   8    4    5 ar
   9    4   12 1
  10    5    6 ar
  11    5   16 1
  12    6    7 ar
  13    7   34 1
  14    9   22 1
  15    9   35 1
  16   10   11 1
  17   10   14 1
  18   10   15 1
  19   11   12 2
  20   12   13 1
  21   13   14 2
  22   13   36 1
  23   14   37 1
  24   15   38 1
  25   15   39 1
  26   15   40 1
  27   16   17 1
  28   16   20 1
  29   17   18 1
  30   17   41 1
  31   17   42 1
  32   18   19 1
  33   18   21 1
  34   18   43 1
  35   19   20 1
  36   19   44 1
  37   19   45 1
  38   20   46 1
  39   20   47 1
  40   21   48 1
  41   22   23 ar
  42   22   27 ar
  43   23   24 ar
  44   23   49 1
  45   24   25 ar
  46   24   50 1
  47   25   26 ar
  48   25   28 1
  49   26   27 ar
  50   26   51 1
  51   27   52 1
  52   28   29 1
  53   29   30 1
  54   29   31 1
  55   29   32 1

#	End of record

