#	Name: ASD03091308
#	Creating user name:	WinNT
#	Creation time:	15. 06. 2019 20:30

#	Modifying user name:	WinNT
#	Modification time:	15. 06. 2019 20:30

#	Program:	/corina/corina34_cracker 3.40 0067  02.08.2006

@<TRIPOS>MOLECULE
ASD03091308
  64   68    0    0    0
SMALL
NO_CHARGES


@<TRIPOS>ATOM
   1 N1             0.4902     1.1008     0.1191 N.2     
   2 C2             0.2466    -0.1793     0.0050 C.2     
   3 N3             1.2216    -1.1051    -0.2526 N.am    
   4 C4             2.5100    -0.7187    -0.4029 C.2     
   5 C5             2.8072     0.7160    -0.2787 C.ar    
   6 C6             4.1015     1.2120    -0.4175 C.ar    
   7 C7             4.3242     2.5728    -0.2912 C.ar    
   8 C8             3.2641     3.4404    -0.0275 C.ar    
   9 C9             1.9904     2.9690     0.1110 C.ar    
  10 C10            1.7363     1.5994    -0.0115 C.ar    
  11 O11            3.3897    -1.5285    -0.6319 O.2     
  12 C12            0.8685    -2.5224    -0.3657 C.3     
  13 C13            0.6499    -2.8776    -1.8377 C.3     
  14 C14            0.2172    -4.3408    -1.9505 C.3     
  15 C15           -0.4396    -1.9770    -2.4233 C.3     
  16 C16            1.9534    -2.6701    -2.6114 C.3     
  17 O17            0.0131    -4.6726    -3.3254 O.3     
  18 C18           -1.1454    -0.6479     0.1619 C.ar    
  19 C19           -1.4657    -1.5772     1.1559 C.ar    
  20 C20           -2.7730    -2.0111     1.2959 C.ar    
  21 C21           -3.7590    -1.5258     0.4535 C.ar    
  22 C22           -3.4455    -0.6058    -0.5315 C.ar    
  23 C23           -2.1485    -0.1603    -0.6781 C.ar    
  24 F24           -3.0869    -2.9091     2.2551 F       
  25 F25           -0.5028    -2.0508     1.9767 F       
  26 N26            8.2782     3.4546    -1.6771 N.3     
  27 C27            8.0264     2.4921    -0.5938 C.3     
  28 C28            6.5888     1.9982    -0.6373 C.3     
  29 N29            5.6192     3.0802    -0.4282 N.3     
  30 C30            5.6889     4.0571    -1.5240 C.3     
  31 C31            6.6167     5.2046    -1.1540 C.3     
  32 C32            8.0838     4.8263    -1.1858 C.3     
  33 C33            7.5971     3.2026    -2.9289 C.3     
  34 C34            6.0891     3.3434    -2.8023 C.3     
  35 H35            4.9234     0.5417    -0.6213 H       
  36 H36            3.4536     4.4993     0.0687 H       
  37 H37            1.1800     3.6531     0.3154 H       
  38 H38            1.6767    -3.1316     0.0390 H       
  39 H39           -0.0468    -2.7146     0.1942 H       
  40 H40            0.9934    -4.9824    -1.5333 H       
  41 H41           -0.7114    -4.4886    -1.3993 H       
  42 H42           -0.1232    -0.9359    -2.3603 H       
  43 H43           -0.6086    -2.2428    -3.4668 H       
  44 H44           -1.3632    -2.1108    -1.8601 H       
  45 H45            2.7296    -3.3117    -2.1942 H       
  46 H46            1.7977    -2.9232    -3.6602 H       
  47 H47            2.2617    -1.6277    -2.5311 H       
  48 H48           -0.2634    -5.5874    -3.4724 H       
  49 H49           -4.7775    -1.8672     0.5655 H       
  50 H50           -4.2199    -0.2321    -1.1850 H       
  51 H51           -1.9081     0.5612    -1.4450 H       
  52 H52            8.7012     1.6431    -0.7037 H       
  53 H53            8.2113     2.9749     0.3658 H       
  54 H54            6.4022     1.5398    -1.6085 H       
  55 H55            6.4504     1.2454     0.1387 H       
  56 H56            4.6897     4.4652    -1.6758 H       
  57 H57            6.4523     6.0258    -1.8517 H       
  58 H58            6.3658     5.5470    -0.1500 H       
  59 H59            8.4935     4.9051    -0.1789 H       
  60 H60            8.6153     5.5173    -1.8401 H       
  61 H61            7.9568     3.9103    -3.6758 H       
  62 H62            7.8310     2.1912    -3.2612 H       
  63 H63            5.6387     2.3508    -2.8098 H       
  64 H64            5.7131     3.9078    -3.6557 H       
@<TRIPOS>BOND
   1    1    2 2
   2    1   10 1
   3    2    3 1
   4    2   18 1
   5    3    4 am
   6    3   12 1
   7    4    5 1
   8    4   11 2
   9    5    6 ar
  10    5   10 ar
  11    6    7 ar
  12    6   35 1
  13    7    8 ar
  14    7   29 1
  15    8    9 ar
  16    8   36 1
  17    9   10 ar
  18    9   37 1
  19   12   13 1
  20   12   38 1
  21   12   39 1
  22   13   14 1
  23   13   15 1
  24   13   16 1
  25   14   17 1
  26   14   40 1
  27   14   41 1
  28   15   42 1
  29   15   43 1
  30   15   44 1
  31   16   45 1
  32   16   46 1
  33   16   47 1
  34   17   48 1
  35   18   19 ar
  36   18   23 ar
  37   19   20 ar
  38   19   25 1
  39   20   21 ar
  40   20   24 1
  41   21   22 ar
  42   21   49 1
  43   22   23 ar
  44   22   50 1
  45   23   51 1
  46   26   27 1
  47   26   32 1
  48   26   33 1
  49   27   28 1
  50   27   52 1
  51   27   53 1
  52   28   29 1
  53   28   54 1
  54   28   55 1
  55   29   30 1
  56   30   31 1
  57   30   34 1
  58   30   56 1
  59   31   32 1
  60   31   57 1
  61   31   58 1
  62   32   59 1
  63   32   60 1
  64   33   34 1
  65   33   61 1
  66   33   62 1
  67   34   63 1
  68   34   64 1

#	End of record

