#	Name: ASD03330017
#	Creating user name:	WinNT
#	Creation time:	15. 06. 2019 20:36

#	Modifying user name:	WinNT
#	Modification time:	15. 06. 2019 20:36

#	Program:	/corina/corina34_cracker 3.40 0067  02.08.2006

@<TRIPOS>MOLECULE
ASD03330017
  42   44    0    0    0
SMALL
NO_CHARGES


@<TRIPOS>ATOM
   1 C1            -0.0168     1.3857     0.0097 C.ar    
   2 C2             0.0021    -0.0041     0.0020 C.ar    
   3 C3            -1.1731    -0.7218     0.0089 C.ar    
   4 C4            -2.3931    -0.0521     0.0242 C.ar    
   5 C5            -2.4101     1.3565     0.0324 C.ar    
   6 C6            -1.2016     2.0646     0.0303 C.ar    
   7 N7            -3.7006    -0.4788     0.0344 N.pl3   
   8 C8            -4.5290     0.6265     0.0488 C.2     
   9 C9            -3.7693     1.7530     0.0478 C.2     
  10 C10           -5.9991     0.5898     0.0628 C.2     
  11 O11           -6.6334     1.6278     0.0745 O.2     
  12 N12           -6.6437    -0.5938     0.0628 N.am    
  13 C13           -8.1081    -0.6304     0.0769 C.3     
  14 C14           -8.5820    -2.0851     0.0738 C.3     
  15 C15          -10.0885    -2.1227     0.0882 C.ar    
  16 C16          -10.7906    -2.1336    -1.1027 C.ar    
  17 C17          -12.1720    -2.1686    -1.0907 C.ar    
  18 C18          -12.8530    -2.1927     0.1146 C.ar    
  19 C19          -12.1488    -2.1817     1.3067 C.ar    
  20 C20          -10.7672    -2.1520     1.2922 C.ar    
  21 F21          -14.2035    -2.2264     0.1276 F       
  22 Cl22           1.4792     2.2664     0.0001 Cl      
  23 C23           -4.4414     3.6414     1.5077 C.3     
  24 C24           -4.2815     3.1702     0.0609 C.3     
  25 H25            0.9475    -0.5261    -0.0098 H       
  26 H26           -1.1482    -1.8015     0.0022 H       
  27 H27           -1.2067     3.1446     0.0365 H       
  28 H28           -3.9928    -1.4037     0.0317 H       
  29 H29           -6.1379    -1.4215     0.0536 H       
  30 H30           -8.4755    -0.1305     0.9731 H       
  31 H31           -8.4928    -0.1211    -0.8068 H       
  32 H32           -8.2147    -2.5850    -0.8225 H       
  33 H33           -8.1974    -2.5944     0.9574 H       
  34 H34          -10.2592    -2.1145    -2.0427 H       
  35 H35          -12.7203    -2.1767    -2.0212 H       
  36 H36          -12.6789    -2.2004     2.2475 H       
  37 H37          -10.2177    -2.1435     2.2219 H       
  38 H38           -3.4762     3.5992     2.0124 H       
  39 H39           -4.8118     4.6665     1.5172 H       
  40 H40           -5.1501     2.9942     2.0244 H       
  41 H41           -3.5728     3.8174    -0.4558 H       
  42 H42           -5.2467     3.2124    -0.4437 H       
@<TRIPOS>BOND
   1    1    2 ar
   2    1   22 1
   3    1    6 ar
   4    2    3 ar
   5    2   25 1
   6    3    4 ar
   7    3   26 1
   8    4    5 ar
   9    4    7 1
  10    5    6 ar
  11    5    9 1
  12    6   27 1
  13    7    8 1
  14    7   28 1
  15    8    9 2
  16    8   10 1
  17    9   24 1
  18   10   11 2
  19   10   12 am
  20   12   13 1
  21   12   29 1
  22   13   14 1
  23   13   30 1
  24   13   31 1
  25   14   15 1
  26   14   32 1
  27   14   33 1
  28   15   16 ar
  29   15   20 ar
  30   16   17 ar
  31   16   34 1
  32   17   18 ar
  33   17   35 1
  34   18   19 ar
  35   18   21 1
  36   19   20 ar
  37   19   36 1
  38   20   37 1
  39   23   24 1
  40   23   38 1
  41   23   39 1
  42   23   40 1
  43   24   41 1
  44   24   42 1

#	End of record

