#	Name: ASD01883642
#	Creating user name:	WinNT
#	Creation time:	15. 06. 2019 19:46

#	Modifying user name:	WinNT
#	Modification time:	15. 06. 2019 19:46

#	Program:	/corina/corina34_cracker 3.40 0067  02.08.2006

@<TRIPOS>MOLECULE
ASD01883642
  49   52    0    0    0
SMALL
NO_CHARGES


@<TRIPOS>ATOM
   1 C1            -0.0164     1.3569     0.0095 C.2     
   2 C2             0.0021    -0.0041     0.0020 C.2     
   3 C3            -1.2087    -0.7162     0.0102 C.2     
   4 C4            -2.3862    -0.0574     0.0255 C.2     
   5 N5            -2.4197     1.3075     0.0332 N.pl3   
   6 C6            -1.2553     2.0305     0.0309 C.2     
   7 C7            -3.4497     2.2079     0.0483 C.2     
   8 C8            -2.9006     3.4425     0.0495 C.2     
   9 N9            -1.5714     3.3178     0.0396 N.2     
  10 Cl10           1.4697     2.2543     0.0001 Cl      
  11 C11           -4.9213     1.8835     0.0605 C.3     
  12 C12           -5.4602     1.9049    -1.3713 C.3     
  13 F13           -4.7795     0.9546    -2.1400 F       
  14 F14           -6.8263     1.6037    -1.3600 F       
  15 F15           -5.2674     3.1759    -1.9232 F       
  16 C16            1.3152    -0.7434    -0.0155 C.3     
  17 N17            1.6969    -1.0962     1.3585 N.3     
  18 C18            2.8407    -2.0169     1.3669 C.3     
  19 C19            3.1175    -2.4757     2.8004 C.3     
  20 C20            3.4156    -1.2537     3.6736 C.3     
  21 C21            2.2289    -0.2882     3.6090 C.3     
  22 C22            1.9779     0.1071     2.1520 C.3     
  23 C23            3.6300    -1.6934     5.0990 C.ar    
  24 C24            4.2117    -0.8302     6.0086 C.ar    
  25 C25            4.4084    -1.2336     7.3160 C.ar    
  26 C26            4.0230    -2.5001     7.7140 C.ar    
  27 C27            3.4404    -3.3630     6.8047 C.ar    
  28 C28            3.2398    -2.9580     5.4983 C.ar    
  29 F29            4.5663    -0.6122     3.2029 F       
  30 H30           -1.1971    -1.7961     0.0040 H       
  31 H31           -3.3111    -0.6151     0.0314 H       
  32 H32           -3.4459     4.3746     0.0594 H       
  33 H33           -5.0715     0.8932     0.4905 H       
  34 H34           -5.4517     2.6239     0.6594 H       
  35 H35            1.2127    -1.6520    -0.6088 H       
  36 H36            2.0842    -0.1077    -0.4544 H       
  37 H37            2.6141    -2.8834     0.7457 H       
  38 H38            3.7200    -1.5075     0.9725 H       
  39 H39            2.2436    -2.9973     3.1907 H       
  40 H40            3.9763    -3.1468     2.8084 H       
  41 H41            1.3410    -0.7755     4.0119 H       
  42 H42            2.4528     0.6034     4.1946 H       
  43 H43            2.8611     0.6066     1.7539 H       
  44 H44            1.1245     0.7833     2.1010 H       
  45 H45            4.5128     0.1593     5.6976 H       
  46 H46            4.8635    -0.5594     8.0265 H       
  47 H47            4.1773    -2.8155     8.7353 H       
  48 H48            3.1396    -4.3526     7.1155 H       
  49 H49            2.7846    -3.6322     4.7878 H       
@<TRIPOS>BOND
   1    1    2 2
   2    1   10 1
   3    1    6 1
   4    2    3 1
   5    2   16 1
   6    3    4 2
   7    3   30 1
   8    4    5 1
   9    4   31 1
  10    5    6 1
  11    5    7 1
  12    6    9 2
  13    7    8 2
  14    7   11 1
  15    8    9 1
  16    8   32 1
  17   11   12 1
  18   11   33 1
  19   11   34 1
  20   12   13 1
  21   12   14 1
  22   12   15 1
  23   16   17 1
  24   16   35 1
  25   16   36 1
  26   17   18 1
  27   17   22 1
  28   18   19 1
  29   18   37 1
  30   18   38 1
  31   19   20 1
  32   19   39 1
  33   19   40 1
  34   20   21 1
  35   20   23 1
  36   20   29 1
  37   21   22 1
  38   21   41 1
  39   21   42 1
  40   22   43 1
  41   22   44 1
  42   23   24 ar
  43   23   28 ar
  44   24   25 ar
  45   24   45 1
  46   25   26 ar
  47   25   46 1
  48   26   27 ar
  49   26   47 1
  50   27   28 ar
  51   27   48 1
  52   28   49 1

#	End of record

