#	Name: ASD08830178
#	Creating user name:	WinNT
#	Creation time:	15. 06. 2019 21:19

#	Modifying user name:	WinNT
#	Modification time:	15. 06. 2019 21:19

#	Program:	/corina/corina34_cracker 3.40 0067  02.08.2006

@<TRIPOS>MOLECULE
ASD08830178
  46   48    0    0    0
SMALL
NO_CHARGES


@<TRIPOS>ATOM
   1 C1            -0.0171     1.4113     0.0098 C.2     
   2 C2             0.0021    -0.0041     0.0020 C.2     
   3 C3             1.3172    -0.7397    -0.0151 C.3     
   4 C4             1.0581    -2.2476    -0.0206 C.3     
   5 N5             2.3400    -2.9647    -0.0372 N.3     
   6 O6            -1.0411    -0.6254     0.0091 O.2     
   7 N7            -1.1406     2.2053     0.0308 N.pl3   
   8 C8             2.1423    -4.4028     0.1954 C.3     
   9 C9             3.4931    -5.1184     0.1107 C.3     
  10 O10            4.3955    -4.5362     1.0552 O.3     
  11 C11            4.6115    -3.1363     0.8576 C.3     
  12 C12            3.2721    -2.4006     0.9499 C.3     
  13 C13            1.0917     2.2411     0.0037 C.2     
  14 C14            0.6291     3.5538     0.0156 C.2     
  15 C15           -0.7497     3.5116     0.0324 C.2     
  16 C16           -1.6503     4.6835     0.0492 C.ar    
  17 C17           -3.0388     4.5127     0.0649 C.ar    
  18 C18           -3.8407     5.6407     0.0807 C.ar    
  19 N19           -3.2751     6.8370     0.0806 N.ar    
  20 C20           -1.9569     6.9692     0.0655 C.ar    
  21 N21           -1.1526     5.9200     0.0552 N.ar    
  22 N22           -1.4051     8.2444     0.0659 N.am    
  23 C23           -2.2086     9.3264     0.0816 C.2     
  24 O24           -3.4131     9.1870     0.0952 O.2     
  25 C25           -1.6101    10.7095     0.0820 C.3     
  26 H26            1.8762    -0.4639    -0.9092 H       
  27 H27            1.8940    -0.4734     0.8707 H       
  28 H28            0.4990    -2.5235     0.8736 H       
  29 H29            0.4813    -2.5139    -0.9063 H       
  30 H30           -2.0574     1.8887     0.0421 H       
  31 H31            1.7110    -4.5556     1.1847 H       
  32 H32            1.4693    -4.8048    -0.5619 H       
  33 H33            3.3597    -6.1759     0.3388 H       
  34 H34            3.8996    -5.0108    -0.8950 H       
  35 H35            5.2870    -2.7603     1.6260 H       
  36 H36            5.0505    -2.9711    -0.1263 H       
  37 H37            3.4237    -1.3412     0.7434 H       
  38 H38            2.8588    -2.5214     1.9513 H       
  39 H39            2.1251     1.9273    -0.0079 H       
  40 H40            1.2396     4.4447     0.0151 H       
  41 H41           -3.4744     3.5245     0.0643 H       
  42 H42           -4.9164     5.5455     0.0928 H       
  43 H43           -0.4416     8.3560     0.0550 H       
  44 H44           -1.0049    10.8438    -0.8145 H       
  45 H45           -2.4088    11.4510     0.0957 H       
  46 H46           -0.9835    10.8339     0.9653 H       
@<TRIPOS>BOND
   1    1    2 1
   2    1   13 2
   3    1    7 1
   4    2    3 1
   5    2    6 2
   6    3    4 1
   7    3   26 1
   8    3   27 1
   9    4    5 1
  10    4   28 1
  11    4   29 1
  12    5    8 1
  13    5   12 1
  14    7   15 1
  15    7   30 1
  16    8    9 1
  17    8   31 1
  18    8   32 1
  19    9   10 1
  20    9   33 1
  21    9   34 1
  22   10   11 1
  23   11   12 1
  24   11   35 1
  25   11   36 1
  26   12   37 1
  27   12   38 1
  28   13   14 1
  29   13   39 1
  30   14   15 2
  31   14   40 1
  32   15   16 1
  33   16   17 ar
  34   16   21 ar
  35   17   18 ar
  36   17   41 1
  37   18   19 ar
  38   18   42 1
  39   19   20 ar
  40   20   21 ar
  41   20   22 1
  42   22   23 am
  43   22   43 1
  44   23   24 2
  45   23   25 1
  46   25   44 1
  47   25   45 1
  48   25   46 1

#	End of record

