#	Name: ASD04881309
#	Creating user name:	WinNT
#	Creation time:	15. 06. 2019 20:53

#	Modifying user name:	WinNT
#	Modification time:	15. 06. 2019 20:53

#	Program:	/corina/corina34_cracker 3.40 0067  02.08.2006

@<TRIPOS>MOLECULE
ASD04881309
  71   75    0    0    0
SMALL
NO_CHARGES


@<TRIPOS>ATOM
   1 N1            -0.3330     1.5718     1.2907 N.2     
   2 C2             0.8644     1.8847     0.7252 C.2     
   3 C3             1.3675     3.2389     0.4325 C.2     
   4 O4             2.4620     3.3839    -0.0779 O.2     
   5 C5             1.5105     0.7118     0.4815 C.2     
   6 O6             0.7013    -0.2749     0.8990 O.3     
   7 C7            -0.4170     0.2789     1.3885 C.2     
   8 N8             0.6148     4.3164     0.7306 N.am    
   9 C9             1.1355     5.6053     0.5540 C.ar    
  10 C10            0.2922     6.6550     0.1797 C.ar    
  11 C11            0.8074     7.9344     0.0047 C.ar    
  12 C12            2.1499     8.1719     0.1989 C.ar    
  13 C13            2.9988     7.1266     0.5733 C.ar    
  14 C14            2.4824     5.8406     0.7555 C.ar    
  15 C15            4.4371     7.3813     0.7809 C.2     
  16 O16            5.1748     6.4713     1.1067 O.2     
  17 N17            4.9332     8.6226     0.6095 N.am    
  18 N18           -1.0657     6.4191    -0.0187 N.3     
  19 C19           -1.2846     5.5497    -1.1831 C.3     
  20 C20           -2.7794     5.2507    -1.3193 C.3     
  21 N21           -3.5180     6.5131    -1.4620 N.3     
  22 C22           -3.2990     7.3825    -0.2975 C.3     
  23 C23           -1.8042     7.6816    -0.1614 C.3     
  24 C24           -4.8801     6.2765    -1.6609 C.ar    
  25 C25           -5.3171     5.6665    -2.8297 C.ar    
  26 C26           -6.6647     5.4336    -3.0230 C.ar    
  27 C27           -7.5784     5.8073    -2.0549 C.ar    
  28 C28           -7.1466     6.4150    -0.8899 C.ar    
  29 C29           -5.8003     6.6456    -0.6877 C.ar    
  30 C30           -4.3221     5.2597    -3.8859 C.3     
  31 C31           -1.5868    -0.4785     1.9620 C.3     
  32 C32           -2.3064    -1.4683     1.0436 C.3     
  33 C33           -1.4170    -1.9838     2.1768 C.3     
  34 C34            6.3614     8.8755     0.8157 C.3     
  35 C35            6.6599    10.3539     0.5584 C.3     
  36 O36            8.4583    11.9471     0.2974 O.3     
  37 C37            8.1682    10.5934     0.6515 C.3     
  38 O38            5.9897    11.1523     1.5359 O.3     
  39 H39            2.4878     0.5967     0.0364 H       
  40 H40           -0.2874     4.1997     1.0672 H       
  41 H41            0.1533     8.7436    -0.2847 H       
  42 H42            2.5472     9.1668     0.0615 H       
  43 H43            3.1352     5.0319     1.0491 H       
  44 H44            4.3447     9.3486     0.3497 H       
  45 H45           -0.9308     6.0519    -2.0835 H       
  46 H46           -0.7379     4.6165    -1.0481 H       
  47 H47           -2.9474     4.6297    -2.1992 H       
  48 H48           -3.1274     4.7243    -0.4305 H       
  49 H49           -3.8458     8.3157    -0.4325 H       
  50 H50           -3.6529     6.8803     0.6029 H       
  51 H51           -1.6363     8.3026     0.7185 H       
  52 H52           -1.4563     8.2080    -1.0502 H       
  53 H53           -7.0052     4.9593    -3.9316 H       
  54 H54           -8.6316     5.6246    -2.2089 H       
  55 H55           -7.8629     6.7060    -0.1359 H       
  56 H56           -5.4634     7.1161     0.2242 H       
  57 H57           -4.0429     4.2163    -3.7394 H       
  58 H58           -4.7694     5.3810    -4.8724 H       
  59 H59           -3.4343     5.8875    -3.8097 H       
  60 H60           -2.1919     0.0683     2.6852 H       
  61 H61           -3.3848    -1.5729     1.1628 H       
  62 H62           -1.9337    -1.5716     0.0245 H       
  63 H63           -0.4592    -2.4263     1.9032 H       
  64 H64           -1.9103    -2.4276     3.0415 H       
  65 H65            6.6307     8.6236     1.8414 H       
  66 H66            6.9422     8.2624     0.1266 H       
  67 H67            6.3093    10.6276    -0.4367 H       
  68 H68            9.3984    12.1705     0.3343 H       
  69 H69            8.5038    10.4047     1.6712 H       
  70 H70            8.6858     9.9202    -0.0319 H       
  71 H71            6.2531    10.9623     2.4467 H       
@<TRIPOS>BOND
   1    1    7 2
   2    1    2 1
   3    2    3 1
   4    2    5 2
   5    3    4 2
   6    3    8 am
   7    5    6 1
   8    5   39 1
   9    6    7 1
  10    7   31 1
  11    8    9 1
  12    8   40 1
  13    9   10 ar
  14    9   14 ar
  15   10   11 ar
  16   10   18 1
  17   11   12 ar
  18   11   41 1
  19   12   13 ar
  20   12   42 1
  21   13   14 ar
  22   13   15 1
  23   14   43 1
  24   15   16 2
  25   15   17 am
  26   17   34 1
  27   17   44 1
  28   18   19 1
  29   18   23 1
  30   19   20 1
  31   19   45 1
  32   19   46 1
  33   20   21 1
  34   20   47 1
  35   20   48 1
  36   21   22 1
  37   21   24 1
  38   22   23 1
  39   22   49 1
  40   22   50 1
  41   23   51 1
  42   23   52 1
  43   24   25 ar
  44   24   29 ar
  45   25   26 ar
  46   25   30 1
  47   26   27 ar
  48   26   53 1
  49   27   28 ar
  50   27   54 1
  51   28   29 ar
  52   28   55 1
  53   29   56 1
  54   30   57 1
  55   30   58 1
  56   30   59 1
  57   31   32 1
  58   31   33 1
  59   31   60 1
  60   32   33 1
  61   32   61 1
  62   32   62 1
  63   33   63 1
  64   33   64 1
  65   34   35 1
  66   34   65 1
  67   34   66 1
  68   35   37 1
  69   35   38 1
  70   35   67 1
  71   36   37 1
  72   36   68 1
  73   37   69 1
  74   37   70 1
  75   38   71 1

#	End of record

