#	Name: ASD01810255
#	Creating user name:	WinNT
#	Creation time:	15. 06. 2019 19:24

#	Modifying user name:	WinNT
#	Modification time:	15. 06. 2019 19:24

#	Program:	/corina/corina34_cracker 3.40 0067  02.08.2006

@<TRIPOS>MOLECULE
ASD01810255
  43   46    0    0    0
SMALL
NO_CHARGES


@<TRIPOS>ATOM
   1 C1            -0.0168     1.3829    -0.0462 C.ar    
   2 C2             0.0020    -0.0038    -0.0532 C.ar    
   3 C3             1.1972    -0.6929    -0.0495 C.ar    
   4 C4             2.4040     0.0048    -0.0390 C.ar    
   5 C5             2.3834     1.4096    -0.0324 C.ar    
   6 C6             1.1653     2.0948    -0.0357 C.ar    
   7 N7             3.6049    -0.6730    -0.0347 N.pl3   
   8 C8             4.7897    -0.0494    -0.0242 C.2     
   9 C9             4.8962     1.3268    -0.0165 C.2     
  10 C10            3.6659     2.1353    -0.0213 C.2     
  11 O11            3.7064     3.3532    -0.0148 O.2     
  12 C12            6.2155     1.9740    -0.0037 C.2     
  13 O13            6.3064     3.3190     0.0037 O.3     
  14 O14            7.2249     1.2966     0.0002 O.2     
  15 C15            3.5834    -2.1378    -0.0413 C.3     
  16 C16            3.4393    -2.6317    -1.4578 C.ar    
  17 N17            2.2372    -2.7337    -1.9905 N.ar    
  18 C18            2.0574    -3.1599    -3.2242 C.ar    
  19 C19            3.1453    -3.5213    -4.0150 C.ar    
  20 C20            4.4322    -3.4244    -3.4795 C.ar    
  21 C21            4.5700    -2.9656    -2.1808 C.ar    
  22 C22            2.9409    -4.0023    -5.4048 C.2     
  23 C23            3.9491    -4.3976    -6.3055 C.2     
  24 N24            3.3765    -4.7550    -7.4244 N.2     
  25 N25            1.9917    -4.6033    -7.2837 N.pl3   
  26 C26            1.7420    -4.1473    -6.0396 C.2     
  27 C27            0.9871    -4.8956    -8.3091 C.3     
  28 F28            1.1453     3.4457    -0.0298 F       
  29 F29            1.1980    -2.0439    -0.0555 F       
  30 H30           -0.9606     1.9079    -0.0534 H       
  31 H31           -0.9295    -0.5504    -0.0614 H       
  32 H32            5.6921    -0.6428    -0.0214 H       
  33 H33            7.1956     3.6989     0.0121 H       
  34 H34            4.5133    -2.5168     0.3827 H       
  35 H35            2.7418    -2.4916     0.5543 H       
  36 H36            1.0573    -3.2300    -3.6258 H       
  37 H37            5.2977    -3.6965    -4.0654 H       
  38 H38            5.5494    -2.8777    -1.7340 H       
  39 H39            5.0105    -4.4043    -6.1060 H       
  40 H40            0.7696    -3.9292    -5.6235 H       
  41 H41            0.6668    -5.9336    -8.2185 H       
  42 H42            0.1286    -4.2375    -8.1748 H       
  43 H43            1.4182    -4.7333    -9.2969 H       
@<TRIPOS>BOND
   1    1    2 ar
   2    1    6 ar
   3    1   30 1
   4    2    3 ar
   5    2   31 1
   6    3    4 ar
   7    3   29 1
   8    4    5 ar
   9    4    7 1
  10    5    6 ar
  11    5   10 1
  12    6   28 1
  13    7    8 1
  14    7   15 1
  15    8    9 2
  16    8   32 1
  17    9   10 1
  18    9   12 1
  19   10   11 2
  20   12   13 1
  21   12   14 2
  22   13   33 1
  23   15   16 1
  24   15   34 1
  25   15   35 1
  26   16   17 ar
  27   16   21 ar
  28   17   18 ar
  29   18   19 ar
  30   18   36 1
  31   19   20 ar
  32   19   22 1
  33   20   21 ar
  34   20   37 1
  35   21   38 1
  36   22   23 1
  37   22   26 2
  38   23   24 2
  39   23   39 1
  40   24   25 1
  41   25   26 1
  42   25   27 1
  43   26   40 1
  44   27   41 1
  45   27   42 1
  46   27   43 1

#	End of record

