#	Name: ASD01917758
#	Creating user name:	WinNT
#	Creation time:	15. 06. 2019 20:10

#	Modifying user name:	WinNT
#	Modification time:	15. 06. 2019 20:10

#	Program:	/corina/corina34_cracker 3.40 0067  02.08.2006

@<TRIPOS>MOLECULE
ASD01917758
  43   46    0    0    0
SMALL
NO_CHARGES


@<TRIPOS>ATOM
   1 C1            -0.5729     1.8032     1.0774 C.2     
   2 C2            -0.3608     0.4736     1.1112 C.2     
   3 C3            -1.3832    -0.5654     0.7261 C.3     
   4 C4            -2.7744     0.0805     0.7382 C.3     
   5 N5            -2.7072     1.3828     0.0584 N.am    
   6 C6            -1.8737     2.4415     0.6568 C.3     
   7 C7            -3.3897     1.6029    -1.0828 C.2     
   8 O8            -3.9913     0.6912    -1.6168 O.2     
   9 C9            -3.4069     2.9504    -1.6841 C.ar    
  10 O10            0.5559     2.4007     1.4812 O.3     
  11 C11            1.4462     1.4358     1.7615 C.2     
  12 N12            0.8932     0.2749     1.5388 N.2     
  13 C13            2.8537     1.6570     2.2523 C.3     
  14 O14            3.7372     1.7623     1.1341 O.3     
  15 C15            5.0535     1.9648     1.4046 C.ar    
  16 C16            5.9670     2.0765     0.3665 C.ar    
  17 C17            7.3045     2.2822     0.6441 C.ar    
  18 C18            7.7330     2.3768     1.9553 C.ar    
  19 C19            6.8246     2.2654     2.9917 C.ar    
  20 C20            5.4851     2.0658     2.7192 C.ar    
  21 C21           -3.5867     4.0764    -0.8771 C.ar    
  22 C22           -3.6015     5.3323    -1.4436 C.ar    
  23 C23           -3.4382     5.4818    -2.8130 C.ar    
  24 C24           -3.2593     4.3706    -3.6207 C.ar    
  25 C25           -3.2372     3.1062    -3.0644 C.ar    
  26 F26           -3.0623     2.0225    -3.8520 F       
  27 F27           -3.4542     6.7164    -3.3614 F       
  28 H28           -1.1636    -0.9411    -0.2732 H       
  29 H29           -1.3560    -1.3873     1.4415 H       
  30 H30           -3.4808    -0.5661     0.2177 H       
  31 H31           -3.1007     0.2237     1.7683 H       
  32 H32           -2.3777     2.8634     1.5262 H       
  33 H33           -1.6829     3.2234    -0.0783 H       
  34 H34            2.8947     2.5769     2.8357 H       
  35 H35            3.1569     0.8168     2.8770 H       
  36 H36            5.6328     2.0023    -0.6578 H       
  37 H37            8.0161     2.3689    -0.1637 H       
  38 H38            8.7791     2.5377     2.1703 H       
  39 H39            7.1619     2.3389     4.0150 H       
  40 H40            4.7759     1.9788     3.5291 H       
  41 H41           -3.7144     3.9627     0.1893 H       
  42 H42           -3.7409     6.2028    -0.8197 H       
  43 H43           -3.1330     4.4931    -4.6863 H       
@<TRIPOS>BOND
   1    1    2 2
   2    1   10 1
   3    1    6 1
   4    2    3 1
   5    2   12 1
   6    3    4 1
   7    3   28 1
   8    3   29 1
   9    4    5 1
  10    4   30 1
  11    4   31 1
  12    5    6 1
  13    5    7 am
  14    6   32 1
  15    6   33 1
  16    7    8 2
  17    7    9 1
  18    9   21 ar
  19    9   25 ar
  20   10   11 1
  21   11   12 2
  22   11   13 1
  23   13   14 1
  24   13   34 1
  25   13   35 1
  26   14   15 1
  27   15   16 ar
  28   15   20 ar
  29   16   17 ar
  30   16   36 1
  31   17   18 ar
  32   17   37 1
  33   18   19 ar
  34   18   38 1
  35   19   20 ar
  36   19   39 1
  37   20   40 1
  38   21   22 ar
  39   21   41 1
  40   22   23 ar
  41   22   42 1
  42   23   24 ar
  43   23   27 1
  44   24   25 ar
  45   24   43 1
  46   25   26 1

#	End of record

