#	Name: ASD01420081
#	Creating user name:	WinNT
#	Creation time:	15. 06. 2019 19:20

#	Modifying user name:	WinNT
#	Modification time:	15. 06. 2019 19:20

#	Program:	/corina/corina34_cracker 3.40 0067  02.08.2006

@<TRIPOS>MOLECULE
ASD01420081
  44   46    0    0    0
SMALL
NO_CHARGES


@<TRIPOS>ATOM
   1 C1            -0.0144     1.2120     0.0087 C.2     
   2 O2             0.3016     0.3320    -0.7690 O.2     
   3 C3             2.1572     1.0160     1.2605 C.3     
   4 N4             0.8488     1.6084     0.9648 N.am    
   5 C5             0.6597     2.7151     1.9080 C.3     
   6 C6             1.8837     2.7835     2.7859 C.ar    
   7 C7             2.2129     3.6347     3.8269 C.ar    
   8 C8             3.4183     3.4893     4.4860 C.ar    
   9 C9             4.2972     2.4920     4.1060 C.ar    
  10 C10            3.9690     1.6421     3.0676 C.ar    
  11 C11            2.7614     1.7876     2.4064 C.ar    
  12 C12           -1.3384     1.8488    -0.0981 C.ar    
  13 C13           -2.4900     1.0599    -0.2428 C.ar    
  14 C14           -3.7301     1.6663    -0.3420 C.ar    
  15 C15           -3.8322     3.0491    -0.2988 C.ar    
  16 C16           -2.6913     3.8326    -0.1554 C.ar    
  17 C17           -1.4535     3.2414    -0.0500 C.ar    
  18 O18           -5.0499     3.6402    -0.3973 O.3     
  19 O19           -2.3879    -0.2922    -0.2858 O.3     
  20 C20           -2.8126     5.3340    -0.1095 C.3     
  21 C21           -1.4228     5.9532     0.0523 C.3     
  22 C22           -3.4457     5.8345    -1.4093 C.3     
  23 C23           -3.6922     5.7387     1.0751 C.3     
  24 H24            2.0339    -0.0294     1.5433 H       
  25 H25            2.8023     1.0892     0.3850 H       
  26 H26            0.5445     3.6510     1.3612 H       
  27 H27           -0.2238     2.5324     2.5196 H       
  28 H28            1.5265     4.4138     4.1240 H       
  29 H29            3.6741     4.1545     5.2975 H       
  30 H30            5.2399     2.3778     4.6204 H       
  31 H31            4.6559     0.8633     2.7706 H       
  32 H32           -4.6187     1.0627    -0.4535 H       
  33 H33           -0.5707     3.8528     0.0658 H       
  34 H34           -5.4903     3.7776     0.4526 H       
  35 H35           -2.4451    -0.7186     0.5802 H       
  36 H36           -0.7961     5.6649    -0.7917 H       
  37 H37           -1.5105     7.0391     0.0855 H       
  38 H38           -0.9717     5.5966     0.9783 H       
  39 H39           -4.4358     5.3934    -1.5246 H       
  40 H40           -3.5334     6.9205    -1.3761 H       
  41 H41           -2.8190     5.5462    -2.2533 H       
  42 H42           -3.2411     5.3821     2.0011 H       
  43 H43           -3.7799     6.8247     1.1083 H       
  44 H44           -4.6823     5.2976     0.9599 H       
@<TRIPOS>BOND
   1    1    2 2
   2    1    4 am
   3    1   12 1
   4    3    4 1
   5    3   11 1
   6    3   24 1
   7    3   25 1
   8    4    5 1
   9    5    6 1
  10    5   26 1
  11    5   27 1
  12    6    7 ar
  13    6   11 ar
  14    7    8 ar
  15    7   28 1
  16    8    9 ar
  17    8   29 1
  18    9   10 ar
  19    9   30 1
  20   10   11 ar
  21   10   31 1
  22   12   13 ar
  23   12   17 ar
  24   13   14 ar
  25   13   19 1
  26   14   15 ar
  27   14   32 1
  28   15   16 ar
  29   15   18 1
  30   16   17 ar
  31   16   20 1
  32   17   33 1
  33   18   34 1
  34   19   35 1
  35   20   21 1
  36   20   23 1
  37   20   22 1
  38   21   36 1
  39   21   37 1
  40   21   38 1
  41   22   39 1
  42   22   40 1
  43   22   41 1
  44   23   42 1
  45   23   43 1
  46   23   44 1

#	End of record

