#	Name: ASD00440002
#	Creating user name:	WinNT
#	Creation time:	15. 06. 2019 18:35

#	Modifying user name:	WinNT
#	Modification time:	15. 06. 2019 18:35

#	Program:	/corina/corina34_cracker 3.40 0067  02.08.2006

@<TRIPOS>MOLECULE
ASD00440002
  67   71    0    0    0
SMALL
NO_CHARGES


@<TRIPOS>ATOM
   1 P1            -0.0180     1.4758     0.0102 P.3     
   2 O2             0.0021    -0.0041     0.0020 O.2     
   3 O3             1.4924     2.0330    -0.0013 O.3     
   4 O4            -0.7967     2.0091    -1.2942 O.3     
   5 O5            -0.7716     1.9950     1.3348 O.3     
   6 C6            -0.4354     1.6326    -2.6245 C.3     
   7 O7            -1.1742     3.7449    -3.6030 O.3     
   8 C8            -1.3752     2.3148    -3.6206 C.3     
   9 C9            -1.0318     1.8857    -5.0644 C.3     
  10 C10           -1.2518     3.1671    -5.8992 C.3     
  11 C11           -1.7020     4.2188    -4.8611 C.3     
  12 O12           -2.2734     2.9589    -6.8764 O.3     
  13 O13           -1.9109     0.8470    -5.5005 O.3     
  14 N14            0.2293     7.2313    -5.2200 N.2     
  15 C15            0.0379     6.0417    -4.7282 C.2     
  16 N16           -1.1395     5.5314    -5.1881 N.pl3   
  17 C17           -1.7010     6.4724    -6.0137 C.ar    
  18 N18           -2.8161     6.5442    -6.7330 N.ar    
  19 C19           -3.0861     7.6168    -7.4470 C.ar    
  20 N20           -2.2800     8.6618    -7.4888 N.ar    
  21 C21           -1.1421     8.6813    -6.8023 C.ar    
  22 C22           -0.8102     7.5592    -6.0245 C.ar    
  23 N23           -0.3034     9.7810    -6.8528 N.pl3   
  24 C24           -0.3850     1.6043     2.6538 C.3     
  25 C25           -1.3055     2.2756     3.6750 C.3     
  26 C26           -0.8916     1.8573     5.0873 C.3     
  27 C27           -1.8121     2.5287     6.1085 C.3     
  28 C28           -1.3982     2.1104     7.5208 C.3     
  29 C29            0.1170     2.9052    10.8797 C.2     
  30 N30           -0.7158     3.7747    11.4677 N.am    
  31 C31           -2.0807     3.5447    10.9687 C.3     
  32 C32           -1.9233     2.3849     9.9779 C.3     
  33 N33           -0.4853     2.0760    10.0164 N.am    
  34 C34           -2.5965     4.8296    10.2914 C.3     
  35 C35           -2.3187     2.7817     8.5419 C.3     
  36 S36           -2.0718     4.6042     8.5431 S.3     
  37 O37            1.3114     2.8747    11.1050 O.2     
  38 H38           -2.5034     1.5237    10.3095 H       
  39 H39           -2.7382     3.2547    11.7882 H       
  40 H40            1.5557     2.9980     0.0033 H       
  41 H41            0.5909     1.9412    -2.8234 H       
  42 H42           -0.5166     0.5508    -2.7307 H       
  43 H43           -2.4131     2.0746    -3.3901 H       
  44 H44            0.0066     1.5610    -5.1296 H       
  45 H45           -0.3220     3.4759    -6.3772 H       
  46 H46           -2.7900     4.2706    -4.8208 H       
  47 H47           -2.0683     2.2653    -7.5183 H       
  48 H48           -1.7400     0.5393    -6.4012 H       
  49 H49            0.7126     5.5335    -4.0552 H       
  50 H50           -4.0010     7.6428    -8.0203 H       
  51 H51           -0.5435    10.5496    -7.3937 H       
  52 H52            0.5244     9.7832    -6.3472 H       
  53 H53           -0.4642     0.5214     2.7499 H       
  54 H54            0.6450     1.9108     2.8364 H       
  55 H55           -1.2262     3.3585     3.5789 H       
  56 H56           -2.3355     1.9691     3.4925 H       
  57 H57           -0.9708     0.7745     5.1834 H       
  58 H58            0.1384     2.1638     5.2698 H       
  59 H59           -1.7328     3.6115     6.0124 H       
  60 H60           -2.8420     2.2222     5.9259 H       
  61 H61           -1.4774     1.0275     7.6169 H       
  62 H62           -0.3682     2.4169     7.7033 H       
  63 H63           -0.4600     4.4477    12.1178 H       
  64 H64           -0.0442     1.3836     9.4998 H       
  65 H65           -3.6821     4.8953    10.3635 H       
  66 H66           -2.1252     5.7113    10.7257 H       
  67 H67           -3.3617     2.5332     8.3457 H       
@<TRIPOS>BOND
   1    1    2 2
   2    1    3 1
   3    1    4 1
   4    1    5 1
   5    3   40 1
   6    4    6 1
   7    5   24 1
   8    6    8 1
   9    6   41 1
  10    6   42 1
  11    7    8 1
  12    7   11 1
  13    8    9 1
  14    8   43 1
  15    9   10 1
  16    9   13 1
  17    9   44 1
  18   10   11 1
  19   10   12 1
  20   10   45 1
  21   11   16 1
  22   11   46 1
  23   12   47 1
  24   13   48 1
  25   14   15 2
  26   14   22 1
  27   15   16 1
  28   15   49 1
  29   16   17 1
  30   17   18 ar
  31   17   22 ar
  32   18   19 ar
  33   19   20 ar
  34   19   50 1
  35   20   21 ar
  36   21   22 ar
  37   21   23 1
  38   23   51 1
  39   23   52 1
  40   24   25 1
  41   24   53 1
  42   24   54 1
  43   25   26 1
  44   25   55 1
  45   25   56 1
  46   26   27 1
  47   26   57 1
  48   26   58 1
  49   27   28 1
  50   27   59 1
  51   27   60 1
  52   28   35 1
  53   28   61 1
  54   28   62 1
  55   29   30 am
  56   29   33 am
  57   29   37 2
  58   30   31 1
  59   30   63 1
  60   31   32 1
  61   31   34 1
  62   31   39 1
  63   32   33 1
  64   32   38 1
  65   32   35 1
  66   33   64 1
  67   34   36 1
  68   34   65 1
  69   34   66 1
  70   35   36 1
  71   35   67 1

#	End of record

