#	Name: ASD01813991
#	Creating user name:	WinNT
#	Creation time:	15. 06. 2019 19:31

#	Modifying user name:	WinNT
#	Modification time:	15. 06. 2019 19:31

#	Program:	/corina/corina34_cracker 3.40 0067  02.08.2006

@<TRIPOS>MOLECULE
ASD01813991
  36   39    0    0    0
SMALL
NO_CHARGES


@<TRIPOS>ATOM
   1 C1            -0.0169     1.3969     0.0097 C.ar    
   2 C2             0.0021    -0.0041     0.0020 C.ar    
   3 C3             1.2465    -0.6678    -0.0134 C.ar    
   4 N4             2.3777     0.0239    -0.0201 N.ar    
   5 C5             2.3717     1.3383    -0.0125 C.ar    
   6 C6             1.1825     2.0589     0.0018 C.ar    
   7 C7             1.2365    -2.1420    -0.0213 C.2     
   8 N8            -1.1391    -0.7340     0.0095 N.2     
   9 C9            -1.1167    -2.0327     0.0027 C.2     
  10 N10            0.0317    -2.7576    -0.0131 N.am    
  11 C11           -0.0349    -4.2211    -0.0203 C.3     
  12 C12           -1.2454    -4.9095     2.0590 C.ar    
  13 C13           -0.0441    -4.7306     1.3979 C.ar    
  14 C14            1.1487    -5.0186     2.0354 C.ar    
  15 C15           -1.2570    -5.3766     3.3588 C.ar    
  16 C16           -0.0611    -5.6672     4.0013 C.ar    
  17 C17            1.1434    -5.4865     3.3349 C.ar    
  18 N18           -0.0697    -6.1415     5.3204 N.pl3   
  19 O19            2.2723    -2.7808    -0.0350 O.2     
  20 C20            1.0177    -6.4559     6.0602 C.2     
  21 C21            0.5845    -6.8729     7.2724 C.2     
  22 C22           -0.8134    -6.8118     7.2747 C.2     
  23 N23           -1.2060    -6.3680     6.1077 N.2     
  24 H24           -0.9507     1.9396     0.0171 H       
  25 H25            3.3114     1.8706    -0.0180 H       
  26 H26            1.2044     3.1387     0.0071 H       
  27 H27           -2.0579    -2.5622     0.0092 H       
  28 H28           -0.9453    -4.5409    -0.5272 H       
  29 H29            0.8327    -4.6217    -0.5446 H       
  30 H30           -2.1751    -4.6791     1.5602 H       
  31 H31            2.0854    -4.8779     1.5165 H       
  32 H32           -2.1956    -5.5158     3.8747 H       
  33 H33            2.0753    -5.7120     3.8320 H       
  34 H34            2.0471    -6.3869     5.7408 H       
  35 H35            1.2076    -7.1962     8.0931 H       
  36 H36           -1.4574    -7.0806     8.0990 H       
@<TRIPOS>BOND
   1    1    2 ar
   2    1    6 ar
   3    1   24 1
   4    2    3 ar
   5    2    8 1
   6    3    4 ar
   7    3    7 1
   8    4    5 ar
   9    5    6 ar
  10    5   25 1
  11    6   26 1
  12    7   10 am
  13    7   19 2
  14    8    9 2
  15    9   10 1
  16    9   27 1
  17   10   11 1
  18   11   13 1
  19   11   28 1
  20   11   29 1
  21   12   15 ar
  22   12   13 ar
  23   12   30 1
  24   13   14 ar
  25   14   17 ar
  26   14   31 1
  27   15   16 ar
  28   15   32 1
  29   16   17 ar
  30   16   18 1
  31   17   33 1
  32   18   23 1
  33   18   20 1
  34   20   21 2
  35   20   34 1
  36   21   22 1
  37   21   35 1
  38   22   23 2
  39   22   36 1

#	End of record

