#	Name: ASD01850024
#	Creating user name:	WinNT
#	Creation time:	15. 06. 2019 19:38

#	Modifying user name:	WinNT
#	Modification time:	15. 06. 2019 19:38

#	Program:	/corina/corina34_cracker 3.40 0067  02.08.2006

@<TRIPOS>MOLECULE
ASD01850024
  45   49    0    0    0
SMALL
NO_CHARGES


@<TRIPOS>ATOM
   1 F1             0.2211     0.3921     1.0628 F       
   2 C2             0.1122     1.7151     0.8118 C.ar    
   3 C3             1.2455     2.5099     0.7810 C.ar    
   4 C4             1.1330     3.8631     0.5236 C.ar    
   5 C5            -0.1104     4.4231     0.2970 C.ar    
   6 C6            -1.2427     3.6305     0.3280 C.ar    
   7 C7            -1.1321     2.2761     0.5795 C.ar    
   8 C8            -0.2318     5.8988     0.0165 C.3     
   9 N9             0.9612     6.3996    -0.6765 N.am    
  10 C10            1.8747     6.9013     0.3724 C.3     
  11 C11            1.1111     6.7217     1.7069 C.3     
  12 N12           -0.2979     6.6759     1.2789 N.am    
  13 C13           -1.5704     7.0237     1.4728 C.2     
  14 O14           -2.0435     7.3904     2.5308 O.2     
  15 C15           -2.3178     6.8949     0.2032 C.ar    
  16 C16           -1.5022     6.2001    -0.7259 C.ar    
  17 C17           -1.9581     5.9616    -2.0018 C.ar    
  18 C18           -3.2198     6.3895    -2.3785 C.ar    
  19 C19           -4.0271     7.0582    -1.4750 C.ar    
  20 C20           -3.5929     7.3066    -0.1839 C.ar    
  21 C21            1.1808     6.4013    -2.0062 C.2     
  22 O22            0.3868     5.8646    -2.7541 O.2     
  23 C23            2.3865     7.0552    -2.5549 C.ar    
  24 C24            2.5326     7.2105    -3.9346 C.ar    
  25 C25            3.6593     7.8219    -4.4426 C.ar    
  26 C26            4.6469     8.2825    -3.5868 C.ar    
  27 C27            4.5079     8.1313    -2.2133 C.ar    
  28 C28            3.3814     7.5254    -1.6947 C.ar    
  29 F29            5.4740     8.5823    -1.3836 F       
  30 F30            5.7489     8.8804    -4.0901 F       
  31 H31            2.2170     2.0727     0.9583 H       
  32 H32            2.0168     4.4833     0.4999 H       
  33 H33           -2.2137     4.0693     0.1516 H       
  34 H34           -2.0168     1.6571     0.6037 H       
  35 H35            2.7945     6.3164     0.3826 H       
  36 H36            2.0988     7.9548     0.2050 H       
  37 H37            1.3971     5.7885     2.1921 H       
  38 H38            1.2857     7.5705     2.3681 H       
  39 H39           -1.3312     5.4404    -2.7102 H       
  40 H40           -3.5750     6.2012    -3.3809 H       
  41 H41           -5.0121     7.3854    -1.7736 H       
  42 H42           -4.2331     7.8294     0.5113 H       
  43 H43            1.7641     6.8518    -4.6033 H       
  44 H44            3.7725     7.9416    -5.5100 H       
  45 H45            3.2733     7.4078    -0.6266 H       
@<TRIPOS>BOND
   1    1    2 1
   2    2    3 ar
   3    2    7 ar
   4    3    4 ar
   5    3   31 1
   6    4    5 ar
   7    4   32 1
   8    5    6 ar
   9    5    8 1
  10    6    7 ar
  11    6   33 1
  12    7   34 1
  13    8    9 1
  14    8   12 1
  15    8   16 1
  16    9   10 1
  17    9   21 am
  18   10   11 1
  19   10   35 1
  20   10   36 1
  21   11   12 1
  22   11   37 1
  23   11   38 1
  24   12   13 am
  25   13   14 2
  26   13   15 1
  27   15   16 ar
  28   15   20 ar
  29   16   17 ar
  30   17   18 ar
  31   17   39 1
  32   18   19 ar
  33   18   40 1
  34   19   20 ar
  35   19   41 1
  36   20   42 1
  37   21   22 2
  38   21   23 1
  39   23   24 ar
  40   23   28 ar
  41   24   25 ar
  42   24   43 1
  43   25   26 ar
  44   25   44 1
  45   26   27 ar
  46   26   30 1
  47   27   28 ar
  48   27   29 1
  49   28   45 1

#	End of record

