#	Name: ASD01880939
#	Creating user name:	WinNT
#	Creation time:	15. 06. 2019 19:41

#	Modifying user name:	WinNT
#	Modification time:	15. 06. 2019 19:41

#	Program:	/corina/corina34_cracker 3.40 0067  02.08.2006

@<TRIPOS>MOLECULE
ASD01880939
  50   53    0    0    0
SMALL
NO_CHARGES


@<TRIPOS>ATOM
   1 N1            -0.0158     1.3133     0.0093 N.ar    
   2 C2             0.0021    -0.0041     0.0020 C.ar    
   3 N3             1.1310    -0.6839    -0.0124 N.ar    
   4 C4             2.3020    -0.0629    -0.0203 C.ar    
   5 C5             2.3325     1.3179    -0.0131 C.ar    
   6 C6             1.1186     2.0075     0.0022 C.ar    
   7 C7             3.6432     2.0616    -0.0217 C.3     
   8 O8             4.7223     1.1249    -0.0370 O.3     
   9 C9             5.9802     1.6342    -0.0463 C.ar    
  10 C10            7.0769     0.7772    -0.0613 C.ar    
  11 C11            8.3489     1.2924    -0.0712 C.ar    
  12 C12            8.5522     2.6767    -0.0661 C.ar    
  13 C13            7.4469     3.5341    -0.0510 C.ar    
  14 C14            6.1715     3.0100    -0.0465 C.ar    
  15 C15            9.7188     0.6612    -0.0883 C.3     
  16 N16           10.6803     1.7697    -0.0923 N.am    
  17 C17           10.0026     2.9303    -0.0795 C.2     
  18 O18           10.5145     4.0332    -0.0794 O.2     
  19 Cl19           7.6805     5.2543    -0.0440 Cl      
  20 N20            1.0960     3.3927     0.0094 N.pl3   
  21 C21           -0.1844     4.1044     0.0254 C.3     
  22 C22            0.0668     5.5903     0.0305 C.ar    
  23 C23            0.1704     6.2778    -1.1643 C.ar    
  24 C24            0.4009     7.6408    -1.1597 C.ar    
  25 C25            0.5273     8.3163     0.0397 C.ar    
  26 C26            0.4229     7.6290     1.2345 C.ar    
  27 C27            0.1881     6.2667     1.2299 C.ar    
  28 C28           12.6316     1.5941    -1.5561 C.3     
  29 C29           12.1389     1.6338    -0.1082 C.3     
  30 H30           -0.9345    -0.5418     0.0084 H       
  31 H31            3.2212    -0.6298    -0.0317 H       
  32 H32            3.6972     2.6926    -0.9088 H       
  33 H33            3.7142     2.6830     0.8710 H       
  34 H34            6.9270    -0.2923    -0.0649 H       
  35 H35            5.3180     3.6718    -0.0352 H       
  36 H36            9.8593     0.0466     0.8009 H       
  37 H37            9.8412     0.0557    -0.9863 H       
  38 H38            1.9280     3.8913     0.0038 H       
  39 H39           -0.7603     3.8362    -0.8604 H       
  40 H40           -0.7429     3.8273     0.9195 H       
  41 H41            0.0716     5.7500    -2.1014 H       
  42 H42            0.4825     8.1778    -2.0931 H       
  43 H43            0.7081     9.3811     0.0433 H       
  44 H44            0.5220     8.1567     2.1715 H       
  45 H45            0.1064     5.7297     2.1633 H       
  46 H46           13.7169     1.4930    -1.5679 H       
  47 H47           12.1819     0.7445    -2.0699 H       
  48 H48           12.3472     2.5167    -2.0621 H       
  49 H49           12.5886     2.4834     0.4055 H       
  50 H50           12.4233     0.7112     0.3978 H       
@<TRIPOS>BOND
   1    1    2 ar
   2    1    6 ar
   3    2    3 ar
   4    2   30 1
   5    3    4 ar
   6    4    5 ar
   7    4   31 1
   8    5    6 ar
   9    5    7 1
  10    6   20 1
  11    7    8 1
  12    7   32 1
  13    7   33 1
  14    8    9 1
  15    9   10 ar
  16    9   14 ar
  17   10   11 ar
  18   10   34 1
  19   11   12 ar
  20   11   15 1
  21   12   13 ar
  22   12   17 1
  23   13   14 ar
  24   13   19 1
  25   14   35 1
  26   15   16 1
  27   15   36 1
  28   15   37 1
  29   16   17 am
  30   16   29 1
  31   17   18 2
  32   20   21 1
  33   20   38 1
  34   21   22 1
  35   21   39 1
  36   21   40 1
  37   22   23 ar
  38   22   27 ar
  39   23   24 ar
  40   23   41 1
  41   24   25 ar
  42   24   42 1
  43   25   26 ar
  44   25   43 1
  45   26   27 ar
  46   26   44 1
  47   27   45 1
  48   28   29 1
  49   28   46 1
  50   28   47 1
  51   28   48 1
  52   29   49 1
  53   29   50 1

#	End of record

