#	Name: ASD06610061
#	Creating user name:	WinNT
#	Creation time:	15. 06. 2019 21:07

#	Modifying user name:	WinNT
#	Modification time:	15. 06. 2019 21:07

#	Program:	/corina/corina34_cracker 3.40 0067  02.08.2006

@<TRIPOS>MOLECULE
ASD06610061
 278  278    0    0    0
SMALL
NO_CHARGES


@<TRIPOS>ATOM
   1 C1            -6.9246     5.1491    -0.3263 C.2     
   2 O2            -6.2989     4.3085    -0.9369 O.2     
   3 N3            -5.1303     6.6946    -0.8711 N.3     
   4 C4            -6.5232     6.5990    -0.4144 C.3     
   5 C5            -7.4361     7.3214    -1.4072 C.3     
   6 C6            -7.1109     8.8165    -1.4042 C.3     
   7 C7            -8.0238     9.5390    -2.3969 C.3     
   8 N8            -7.7124    10.9705    -2.3941 N.pl3   
   9 C9            -8.4090    11.8269    -3.2127 C.2     
  10 N10           -9.3070    11.3590    -4.0310 N.2     
  11 N11           -8.1563    13.1845    -3.1673 N.am    
  12 C12           -8.8787     2.8454    -0.7419 C.2     
  13 O13           -8.7555     3.5139    -1.7463 O.2     
  14 N14           -7.9822     4.7872     0.4266 N.am    
  15 C15           -8.4842     3.4158     0.5961 C.3     
  16 C16           -9.7186     3.4905     1.5192 C.3     
  17 C17          -10.1812     4.9632     1.3624 C.3     
  18 C18           -8.8235     5.7002     1.2217 C.3     
  19 C19          -10.7857    -0.0405    -1.9243 C.2     
  20 O20          -10.9268    -0.5517    -0.8336 O.2     
  21 N21           -9.3684     1.5923    -0.8224 N.am    
  22 C22           -9.7518     1.0378    -2.1230 C.3     
  23 C23           -8.5194     0.4429    -2.8072 C.3     
  24 C24           -7.5324     1.5626    -3.1433 C.3     
  25 C25           -7.8499    -0.5621    -1.8678 C.3     
  26 C26          -12.7450    -2.1925    -4.1364 C.2     
  27 O27          -12.2109    -1.7504    -5.1315 O.2     
  28 N28          -11.5534    -0.4368    -2.9587 N.am    
  29 C29          -12.4810    -1.5588    -2.7948 C.3     
  30 C30          -13.7971    -1.0502    -2.2031 C.3     
  31 C31          -15.0861    -3.0365    -6.1168 C.2     
  32 O32          -15.5832    -2.1266    -5.4877 O.2     
  33 N33          -13.5746    -3.2505    -4.2304 N.am    
  34 C34          -13.9178    -3.7977    -5.5453 C.3     
  35 C35          -14.2922    -5.2741    -5.4014 C.3     
  36 C36          -13.1640    -6.0155    -4.7316 C.2     
  37 O37          -12.1156    -5.4490    -4.5061 O.2     
  38 N38          -13.3201    -7.3081    -4.3833 N.am    
  39 C39          -17.4497    -3.5001    -8.8667 C.2     
  40 O40          -17.0631    -4.6292    -9.0826 O.2     
  41 N41          -15.5786    -3.3670    -7.3271 N.am    
  42 C42          -16.7144    -2.6271    -7.8827 C.3     
  43 C43          -16.2061    -1.3720    -8.5950 C.3     
  44 C44          -19.9837    -3.0077   -11.4550 C.2     
  45 O45          -19.9150    -1.7998   -11.3710 O.2     
  46 N46          -18.5370    -3.0261    -9.5067 N.am    
  47 C47          -19.2518    -3.8748   -10.4633 C.3     
  48 C48          -20.2565    -4.7529    -9.7146 C.3     
  49 C49          -19.5047    -5.7203    -8.7981 C.3     
  50 C50          -20.5094    -6.5983    -8.0494 C.3     
  51 N51          -19.7895    -7.5246    -7.1719 N.pl3   
  52 C52          -20.4878    -8.4178    -6.3943 C.2     
  53 N53          -19.8474    -9.2420    -5.6136 N.2     
  54 N54          -21.8617    -8.4418    -6.4402 N.pl3   
  55 C55          -22.5975    -3.4932   -13.9641 C.2     
  56 O56          -22.8165    -4.6283   -13.5974 O.2     
  57 N57          -20.7147    -3.5746   -12.4352 N.am    
  58 C58          -21.4262    -2.7316   -13.3993 C.3     
  59 C59          -20.4767    -2.3415   -14.5338 C.3     
  60 C60          -19.3535    -1.4628   -13.9795 C.3     
  61 C61          -18.3371    -1.1756   -15.0864 C.3     
  62 C62          -19.9407    -0.1444   -13.4717 C.3     
  63 C63          -24.8913    -3.1010   -16.7832 C.2     
  64 O64          -24.2530    -2.1798   -17.2466 O.2     
  65 N65          -23.4018    -2.9129   -14.8766 N.am    
  66 C66          -24.5405    -3.6533   -15.4257 C.3     
  67 C67          -25.7423    -3.5080   -14.4899 C.3     
  68 C68          -25.4303    -4.1796   -13.1511 C.3     
  69 C69          -26.6321    -4.0344   -12.2154 C.3     
  70 N70          -26.3334    -4.6775   -10.9334 N.pl3   
  71 C71          -27.2710    -4.6745    -9.9279 C.2     
  72 N72          -28.4256    -4.0995   -10.1152 N.2     
  73 N73          -26.9906    -5.2781    -8.7249 N.pl3   
  74 C74          -27.7053    -3.3767   -19.1002 C.2     
  75 O75          -28.3868    -3.9683   -18.2899 O.2     
  76 N76          -25.9144    -3.6310   -17.4825 N.am    
  77 C77          -26.2554    -3.0941   -18.8023 C.3     
  78 C78          -25.3776    -3.7579   -19.8652 C.3     
  79 C79          -23.9159    -3.3687   -19.6352 C.3     
  80 C80          -23.0247    -4.1294   -20.6191 C.3     
  81 C81          -23.7484    -1.8637   -19.8540 C.3     
  82 C82          -29.8639    -3.2778   -22.0488 C.2     
  83 O83          -28.9279    -3.0891   -22.7966 O.2     
  84 N84          -28.2448    -2.9720   -20.2671 N.am    
  85 C85          -29.6544    -3.2467   -20.5567 C.3     
  86 C86          -30.5247    -2.1486   -19.9423 C.3     
  87 C87          -30.4076    -2.1983   -18.4176 C.3     
  88 C88          -31.2779    -1.1002   -17.8031 C.3     
  89 N89          -31.1658    -1.1478   -16.3432 N.pl3   
  90 C90          -31.8638    -0.2500   -15.5705 C.2     
  91 N91          -31.7640    -0.2924   -14.2716 N.2     
  92 N92          -32.6669     0.6924   -16.1679 N.pl3   
  93 C93          -32.7313    -3.2134   -24.3152 C.2     
  94 O94          -33.5767    -3.3036   -23.4503 O.2     
  95 N95          -31.0913    -3.5153   -22.5521 N.am    
  96 C96          -31.2950    -3.5455   -24.0026 C.3     
  97 C97          -30.9670    -4.9420   -24.5347 C.3     
  98 C98          -29.4776    -5.2280   -24.3325 C.3     
  99 C99          -31.7936    -5.9834   -23.7776 C.3     
 100 C100         -34.7525    -2.5850   -27.2956 C.2     
 101 O101         -33.9044    -3.0385   -28.0346 O.2     
 102 N102         -33.0764    -2.8161   -25.5560 N.am    
 103 C103         -34.4498    -2.3879   -25.8326 C.3     
 104 C104         -34.6048    -0.9085   -25.4745 C.3     
 105 O105         -33.7822    -0.1209   -26.3376 O.3     
 106 C106         -37.6726    -2.0085   -29.4898 C.2     
 107 O107         -38.3630    -1.5787   -28.5961 O.2     
 108 N108         -35.9656    -2.2574   -27.7830 N.am    
 109 C109         -36.2598    -2.4489   -29.2053 C.3     
 110 O110         -38.1641    -2.0937   -30.7359 O.3     
 111 C111          -7.1469    13.6570    -2.4095 C.2     
 112 O112          -6.3890    12.8863    -1.8603 O.2     
 113 C113           2.8182    27.5659     5.2342 C.3     
 114 C114           2.6288    26.0569     5.0671 C.3     
 115 C115           1.4213    25.7913     4.1658 C.3     
 116 C116           1.2319    24.2823     3.9986 C.3     
 117 C117           0.0244    24.0166     3.0974 C.3     
 118 C118          -0.1651    22.5076     2.9302 C.3     
 119 C119          -1.3726    22.2420     2.0289 C.3     
 120 C120          -1.5620    20.7330     1.8617 C.3     
 121 C121          -2.7695    20.4673     0.9605 C.3     
 122 C122          -2.9590    18.9583     0.7933 C.3     
 123 C123          -4.1665    18.6926    -0.1080 C.3     
 124 C124          -4.3559    17.1837    -0.2752 C.3     
 125 C125          -5.5634    16.9180    -1.1764 C.3     
 126 C126          -5.7528    15.4090    -1.3436 C.3     
 127 C127          -6.9603    15.1433    -2.2449 C.3     
 128 H128          -4.5005     6.2810    -0.2000 H       
 129 H129          -5.0181     6.2720    -1.7805 H       
 130 H130          -6.6161     7.0620     0.5679 H       
 131 H131          -7.2778     6.9172    -2.4070 H       
 132 H132          -8.4765     7.1754    -1.1167 H       
 133 H133          -7.2692     9.2208    -0.4044 H       
 134 H134          -6.0705     8.9626    -1.6947 H       
 135 H135          -7.8655     9.1347    -3.3967 H       
 136 H136          -9.0642     9.3929    -2.1065 H       
 137 H137          -7.0145    11.3139    -1.8145 H       
 138 H138          -9.8497    11.9683    -4.5555 H       
 139 H139          -8.7054    13.7974    -3.6808 H       
 140 H140          -7.7146     2.7930     1.0520 H       
 141 H141         -10.4951     2.8043     1.1812 H       
 142 H142          -9.4408     3.2816     2.5523 H       
 143 H143         -10.7917     5.0878     0.4680 H       
 144 H144         -10.7171     5.3010     2.2494 H       
 145 H145          -8.3778     5.8697     2.2019 H       
 146 H146          -8.9582     6.6458     0.6966 H       
 147 H147          -9.4670     1.0576    -0.0191 H       
 148 H148         -10.1674     1.8290    -2.7470 H       
 149 H149          -8.8215    -0.0625    -3.7244 H       
 150 H150          -7.2303     2.0681    -2.2260 H       
 151 H151          -6.6544     1.1388    -3.6307 H       
 152 H152          -8.0093     2.2787    -3.8125 H       
 153 H153          -8.5192    -1.4064    -1.7023 H       
 154 H154          -6.9220    -0.9166    -2.3166 H       
 155 H155          -7.6315    -0.0794    -0.9152 H       
 156 H156         -11.4918     0.0209    -3.8117 H       
 157 H157         -12.0426    -2.2976    -2.1240 H       
 158 H158         -14.2356    -0.3114    -2.8740 H       
 159 H159         -14.4873    -1.8850    -2.0812 H       
 160 H160         -13.6062    -0.5919    -1.2328 H       
 161 H161         -13.9445    -3.6496    -3.4274 H       
 162 H162         -13.0612    -3.7035    -6.2128 H       
 163 H163         -15.1948    -5.3628    -4.7967 H       
 164 H164         -14.4725    -5.7011    -6.3879 H       
 165 H165         -14.1586    -7.7612    -4.5636 H       
 166 H166         -12.5939    -7.7853    -3.9522 H       
 167 H167         -15.1810    -4.0948    -7.8302 H       
 168 H168         -17.3897    -2.3393    -7.0769 H       
 169 H169         -15.5308    -1.6598    -9.4007 H       
 170 H170         -17.0512    -0.8215    -9.0084 H       
 171 H171         -15.6743    -0.7406    -7.8833 H       
 172 H172         -18.8462    -2.1231    -9.3341 H       
 173 H173         -18.5386    -4.5079   -10.9911 H       
 174 H174         -20.9145    -4.1228    -9.1162 H       
 175 H175         -20.8498    -5.3193   -10.4324 H       
 176 H176         -18.8467    -6.3504    -9.3965 H       
 177 H177         -18.9114    -5.1539    -8.0803 H       
 178 H178         -21.1674    -5.9682    -7.4510 H       
 179 H179         -21.1026    -7.1647    -8.7672 H       
 180 H180         -18.8202    -7.5078    -7.1395 H       
 181 H181         -20.3401    -9.8722    -5.0650 H       
 182 H182         -22.3383    -7.8284    -7.0212 H       
 183 H183         -22.3544    -9.0720    -5.8916 H       
 184 H184         -20.7696    -4.5407   -12.5024 H       
 185 H185         -21.7847    -1.8316   -12.8998 H       
 186 H186         -20.0494    -3.2416   -14.9758 H       
 187 H187         -21.0278    -1.7893   -15.2951 H       
 188 H188         -18.8590    -1.9808   -13.1577 H       
 189 H189         -18.8316    -0.6577   -15.9082 H       
 190 H190         -17.5369    -0.5496   -14.6915 H       
 191 H191         -17.9188    -2.1148   -15.4482 H       
 192 H192         -20.4352     0.3735   -14.2935 H       
 193 H193         -20.6648    -0.3491   -12.6830 H       
 194 H194         -19.1406     0.4815   -13.0767 H       
 195 H195         -23.2267    -2.0050   -15.1699 H       
 196 H196         -24.2779    -4.7070   -15.5188 H       
 197 H197         -25.9496    -2.4505   -14.3263 H       
 198 H198         -26.6134    -3.9835   -14.9407 H       
 199 H199         -25.2230    -5.2372   -13.3147 H       
 200 H200         -24.5592    -3.7041   -12.7003 H       
 201 H201         -26.8394    -2.9768   -12.0517 H       
 202 H202         -27.5031    -4.5099   -12.6662 H       
 203 H203         -25.4741    -5.1054   -10.7941 H       
 204 H204         -29.0871    -4.0975    -9.4057 H       
 205 H205         -26.1314    -5.7060    -8.5855 H       
 206 H206         -27.6522    -5.2760    -8.0154 H       
 207 H207         -26.4249    -4.3678   -17.1119 H       
 208 H208         -26.0857    -2.0175   -18.8115 H       
 209 H209         -25.4803    -4.8409   -19.7967 H       
 210 H210         -25.6908    -3.4250   -20.8547 H       
 211 H211         -23.6288    -3.6216   -18.6146 H       
 212 H212         -23.3118    -3.8764   -21.6397 H       
 213 H213         -21.9834    -3.8521   -20.4553 H       
 214 H214         -23.1440    -5.2016   -20.4632 H       
 215 H215         -24.3833    -1.3217   -19.1531 H       
 216 H216         -22.7070    -1.5864   -19.6902 H       
 217 H217         -24.0354    -1.6107   -20.8747 H       
 218 H218         -27.6998    -2.4989   -20.9152 H       
 219 H219         -29.9316    -4.2110   -20.1307 H       
 220 H220         -30.1889    -1.1756   -20.3009 H       
 221 H221         -31.5639    -2.3038   -20.2321 H       
 222 H222         -30.7434    -3.1713   -18.0589 H       
 223 H223         -29.3684    -2.0431   -18.1277 H       
 224 H224         -30.9422    -0.1272   -18.1618 H       
 225 H225         -32.3172    -1.2554   -18.0930 H       
 226 H226         -30.5991    -1.8127   -15.9217 H       
 227 H227         -32.2565     0.3410   -13.7265 H       
 228 H228         -32.7412     0.7239   -17.1346 H       
 229 H229         -33.1594     1.3258   -15.6227 H       
 230 H230         -31.8399    -3.6663   -21.9540 H       
 231 H231         -30.6413    -2.8133   -24.4766 H       
 232 H232         -31.2055    -4.9913   -25.5971 H       
 233 H233         -29.2625    -5.2976   -23.2662 H       
 234 H234         -29.2193    -6.1693   -24.8175 H       
 235 H235         -28.8900    -4.4208   -24.7697 H       
 236 H236         -32.8547    -5.7796   -23.9216 H       
 237 H237         -31.5599    -6.9783   -24.1566 H       
 238 H238         -31.5551    -5.9341   -22.7151 H       
 239 H239         -32.4153    -2.8136   -26.2659 H       
 240 H240         -35.1425    -2.9808   -25.2352 H       
 241 H241         -35.6468    -0.6125   -25.5958 H       
 242 H242         -34.3006    -0.7514   -24.4396 H       
 243 H243         -33.8305     0.8298   -26.1672 H       
 244 H244         -36.6439    -1.8947   -27.1919 H       
 245 H245         -36.1494    -3.5029   -29.4604 H       
 246 H246         -35.5671    -1.8561   -29.8026 H       
 247 H247         -39.0755    -1.7993   -30.8695 H       
 248 H248           3.6785    27.7552     5.8763 H       
 249 H249           2.9861    28.0214     4.2583 H       
 250 H250           1.9251    27.9962     5.6872 H       
 251 H251           3.5220    25.6266     4.6141 H       
 252 H252           2.4609    25.6015     6.0430 H       
 253 H253           0.5282    26.2216     4.6188 H       
 254 H254           1.5892    26.2467     3.1898 H       
 255 H255           2.1250    23.8519     3.5456 H       
 256 H256           1.0640    23.8268     4.9746 H       
 257 H257          -0.8688    24.4469     3.5503 H       
 258 H258           0.1922    24.4721     2.1214 H       
 259 H259           0.7281    22.0773     2.4772 H       
 260 H260          -0.3329    22.0522     3.9061 H       
 261 H261          -2.2657    22.6723     2.4819 H       
 262 H262          -1.2047    22.6974     1.0530 H       
 263 H263          -0.6689    20.3026     1.4087 H       
 264 H264          -1.7299    20.2775     2.8377 H       
 265 H265          -3.6627    20.8976     1.4135 H       
 266 H266          -2.6017    20.9227    -0.0155 H       
 267 H267          -2.0658    18.5280     0.3403 H       
 268 H268          -3.1268    18.5029     1.7692 H       
 269 H269          -5.0596    19.1230     0.3450 H       
 270 H270          -3.9986    19.1481    -1.0839 H       
 271 H271          -3.4627    16.7533    -0.7282 H       
 272 H272          -4.5238    16.7282     0.7008 H       
 273 H273          -6.4565    17.3483    -0.7234 H       
 274 H274          -5.3955    17.3734    -2.1524 H       
 275 H275          -4.8597    14.9787    -1.7966 H       
 276 H276          -5.9207    14.9536    -0.3677 H       
 277 H277          -6.7925    15.5988    -3.2208 H       
 278 H278          -7.8535    15.5737    -1.7919 H       
@<TRIPOS>BOND
   1    1    2 2
   2    1    4 1
   3    1   14 am
   4    3    4 1
   5    3  128 1
   6    3  129 1
   7    4    5 1
   8    4  130 1
   9    5    6 1
  10    5  131 1
  11    5  132 1
  12    6    7 1
  13    6  133 1
  14    6  134 1
  15    7    8 1
  16    7  135 1
  17    7  136 1
  18    8    9 1
  19    8  137 1
  20    9   10 2
  21    9   11 1
  22   10  138 1
  23   11  111 am
  24   11  139 1
  25   12   13 2
  26   12   21 am
  27   12   15 1
  28   14   15 1
  29   14   18 1
  30   15   16 1
  31   15  140 1
  32   16   17 1
  33   16  141 1
  34   16  142 1
  35   17   18 1
  36   17  143 1
  37   17  144 1
  38   18  145 1
  39   18  146 1
  40   19   20 2
  41   19   22 1
  42   19   28 am
  43   21   22 1
  44   21  147 1
  45   22   23 1
  46   22  148 1
  47   23   24 1
  48   23   25 1
  49   23  149 1
  50   24  150 1
  51   24  151 1
  52   24  152 1
  53   25  153 1
  54   25  154 1
  55   25  155 1
  56   26   27 2
  57   26   29 1
  58   26   33 am
  59   28   29 1
  60   28  156 1
  61   29   30 1
  62   29  157 1
  63   30  158 1
  64   30  159 1
  65   30  160 1
  66   31   32 2
  67   31   34 1
  68   31   41 am
  69   33   34 1
  70   33  161 1
  71   34   35 1
  72   34  162 1
  73   35   36 1
  74   35  163 1
  75   35  164 1
  76   36   37 2
  77   36   38 am
  78   38  165 1
  79   38  166 1
  80   39   40 2
  81   39   42 1
  82   39   46 am
  83   41   42 1
  84   41  167 1
  85   42   43 1
  86   42  168 1
  87   43  169 1
  88   43  170 1
  89   43  171 1
  90   44   45 2
  91   44   47 1
  92   44   57 am
  93   46   47 1
  94   46  172 1
  95   47   48 1
  96   47  173 1
  97   48   49 1
  98   48  174 1
  99   48  175 1
 100   49   50 1
 101   49  176 1
 102   49  177 1
 103   50   51 1
 104   50  178 1
 105   50  179 1
 106   51   52 1
 107   51  180 1
 108   52   53 2
 109   52   54 1
 110   53  181 1
 111   54  182 1
 112   54  183 1
 113   55   56 2
 114   55   58 1
 115   55   65 am
 116   57   58 1
 117   57  184 1
 118   58   59 1
 119   58  185 1
 120   59   60 1
 121   59  186 1
 122   59  187 1
 123   60   61 1
 124   60   62 1
 125   60  188 1
 126   61  189 1
 127   61  190 1
 128   61  191 1
 129   62  192 1
 130   62  193 1
 131   62  194 1
 132   63   64 2
 133   63   66 1
 134   63   76 am
 135   65   66 1
 136   65  195 1
 137   66   67 1
 138   66  196 1
 139   67   68 1
 140   67  197 1
 141   67  198 1
 142   68   69 1
 143   68  199 1
 144   68  200 1
 145   69   70 1
 146   69  201 1
 147   69  202 1
 148   70   71 1
 149   70  203 1
 150   71   72 2
 151   71   73 1
 152   72  204 1
 153   73  205 1
 154   73  206 1
 155   74   75 2
 156   74   77 1
 157   74   84 am
 158   76   77 1
 159   76  207 1
 160   77   78 1
 161   77  208 1
 162   78   79 1
 163   78  209 1
 164   78  210 1
 165   79   80 1
 166   79   81 1
 167   79  211 1
 168   80  212 1
 169   80  213 1
 170   80  214 1
 171   81  215 1
 172   81  216 1
 173   81  217 1
 174   82   83 2
 175   82   85 1
 176   82   95 am
 177   84   85 1
 178   84  218 1
 179   85   86 1
 180   85  219 1
 181   86   87 1
 182   86  220 1
 183   86  221 1
 184   87   88 1
 185   87  222 1
 186   87  223 1
 187   88   89 1
 188   88  224 1
 189   88  225 1
 190   89   90 1
 191   89  226 1
 192   90   91 2
 193   90   92 1
 194   91  227 1
 195   92  228 1
 196   92  229 1
 197   93   94 2
 198   93   96 1
 199   93  102 am
 200   95   96 1
 201   95  230 1
 202   96   97 1
 203   96  231 1
 204   97   98 1
 205   97   99 1
 206   97  232 1
 207   98  233 1
 208   98  234 1
 209   98  235 1
 210   99  236 1
 211   99  237 1
 212   99  238 1
 213  100  101 2
 214  100  103 1
 215  100  108 am
 216  102  103 1
 217  102  239 1
 218  103  104 1
 219  103  240 1
 220  104  105 1
 221  104  241 1
 222  104  242 1
 223  105  243 1
 224  106  107 2
 225  106  109 1
 226  106  110 1
 227  108  109 1
 228  108  244 1
 229  109  245 1
 230  109  246 1
 231  110  247 1
 232  111  112 2
 233  111  127 1
 234  113  114 1
 235  113  248 1
 236  113  249 1
 237  113  250 1
 238  114  115 1
 239  114  251 1
 240  114  252 1
 241  115  116 1
 242  115  253 1
 243  115  254 1
 244  116  117 1
 245  116  255 1
 246  116  256 1
 247  117  118 1
 248  117  257 1
 249  117  258 1
 250  118  119 1
 251  118  259 1
 252  118  260 1
 253  119  120 1
 254  119  261 1
 255  119  262 1
 256  120  121 1
 257  120  263 1
 258  120  264 1
 259  121  122 1
 260  121  265 1
 261  121  266 1
 262  122  123 1
 263  122  267 1
 264  122  268 1
 265  123  124 1
 266  123  269 1
 267  123  270 1
 268  124  125 1
 269  124  271 1
 270  124  272 1
 271  125  126 1
 272  125  273 1
 273  125  274 1
 274  126  127 1
 275  126  275 1
 276  126  276 1
 277  127  277 1
 278  127  278 1

#	End of record

