#	Name: ASD01148873
#	Creating user name:	WinNT
#	Creation time:	15. 06. 2019 19:03

#	Modifying user name:	WinNT
#	Modification time:	15. 06. 2019 19:03

#	Program:	/corina/corina34_cracker 3.40 0067  02.08.2006

@<TRIPOS>MOLECULE
ASD01148873
  39   41    0    0    0
SMALL
NO_CHARGES


@<TRIPOS>ATOM
   1 N1            -0.0138     1.3588     0.0872 N.pl3   
   2 C2            -0.0001     0.0071    -0.1039 C.2     
   3 C3             1.2852    -0.4046    -0.1568 C.2     
   4 C4             2.1036     0.7254     0.0063 C.2     
   5 C5             1.2840     1.8035     0.1553 C.2     
   6 C6             1.7150     3.2035     0.3546 C.ar    
   7 C7             3.0001     3.6011    -0.0178 C.ar    
   8 C8             3.3958     4.9092     0.1705 C.ar    
   9 C9             2.5221     5.8261     0.7273 C.ar    
  10 C10            1.2468     5.4386     1.0986 C.ar    
  11 C11            0.8366     4.1350     0.9105 C.ar    
  12 C12           -1.2140    -0.8764    -0.2333 C.3     
  13 C13           -1.1594     2.1591     0.1903 C.ar    
  14 C14           -1.9979     2.0351     1.2901 C.ar    
  15 C15           -3.1261     2.8256     1.3892 C.ar    
  16 C16           -3.4210     3.7398     0.3945 C.ar    
  17 C17           -2.5879     3.8657    -0.7020 C.ar    
  18 C18           -1.4554     3.0817    -0.8041 C.ar    
  19 S19           -4.8616     4.7461     0.5243 S.o2    
  20 O20           -5.1911     5.0615    -0.8215 O.2     
  21 O21           -5.7469     3.9876     1.3368 O.2     
  22 C22           -4.3003     6.2285     1.4064 C.3     
  23 H23            1.6231    -1.4205    -0.2990 H       
  24 H24            3.1835     0.7373     0.0124 H       
  25 H25            3.6833     2.8861    -0.4519 H       
  26 H26            4.3899     5.2181    -0.1172 H       
  27 H27            2.8371     6.8488     0.8732 H       
  28 H28            0.5697     6.1593     1.5328 H       
  29 H29           -0.1606     3.8348     1.1966 H       
  30 H30           -1.5029    -0.9456    -1.2820 H       
  31 H31           -0.9812    -1.8715     0.1459 H       
  32 H32           -2.0359    -0.4512     0.3427 H       
  33 H33           -1.7682     1.3210     2.0671 H       
  34 H34           -3.7789     2.7293     2.2442 H       
  35 H35           -2.8211     4.5803    -1.4774 H       
  36 H36           -0.8027     3.1835    -1.6586 H       
  37 H37           -3.5132     6.7169     0.8320 H       
  38 H38           -5.1375     6.9150     1.5324 H       
  39 H39           -3.9130     5.9442     2.3848 H       
@<TRIPOS>BOND
   1    1    2 1
   2    1    5 1
   3    1   13 1
   4    2    3 2
   5    2   12 1
   6    3    4 1
   7    3   23 1
   8    4    5 2
   9    4   24 1
  10    5    6 1
  11    6    7 ar
  12    6   11 ar
  13    7    8 ar
  14    7   25 1
  15    8    9 ar
  16    8   26 1
  17    9   10 ar
  18    9   27 1
  19   10   11 ar
  20   10   28 1
  21   11   29 1
  22   12   30 1
  23   12   31 1
  24   12   32 1
  25   13   14 ar
  26   13   18 ar
  27   14   15 ar
  28   14   33 1
  29   15   16 ar
  30   15   34 1
  31   16   17 ar
  32   16   19 1
  33   17   18 ar
  34   17   35 1
  35   18   36 1
  36   19   20 2
  37   19   21 2
  38   19   22 1
  39   22   37 1
  40   22   38 1
  41   22   39 1

#	End of record

