#	Name: ASD02508373
#	Creating user name:	WinNT
#	Creation time:	15. 06. 2019 20:24

#	Modifying user name:	WinNT
#	Modification time:	15. 06. 2019 20:24

#	Program:	/corina/corina34_cracker 3.40 0067  02.08.2006

@<TRIPOS>MOLECULE
ASD02508373
  34   36    0    0    0
SMALL
NO_CHARGES


@<TRIPOS>ATOM
   1 C1            -0.1932     1.7613     0.2767 C.2     
   2 C2            -0.1749     0.3616     0.4443 C.2     
   3 C3             1.1131    -0.0344     0.4031 C.2     
   4 N4             1.8937     1.0714     0.2158 N.pl3   
   5 C5             1.0842     2.1695     0.1392 C.2     
   6 C6             3.2884     1.0781     0.1191 C.ar    
   7 C7             4.0290     1.9573     0.9016 C.ar    
   8 N8             3.8917     0.2442    -0.7119 N.ar    
   9 C9             5.2050     0.2173    -0.8337 C.ar    
  10 C10            6.0029     1.0658    -0.0917 C.ar    
  11 C11            5.4100     1.9529     0.7960 C.ar    
  12 S12            1.6903    -1.6914     0.5637 S.o2    
  13 O13            1.6058    -2.2729    -0.7301 O.2     
  14 O14            2.8986    -1.6251     1.3086 O.2     
  15 N15            0.6001    -2.5005     1.5121 N.am    
  16 C16            0.3844    -2.0933     2.8322 C.ar    
  17 C17           -0.9094    -1.9958     3.3272 C.ar    
  18 C18            1.2486    -1.3899     4.9559 C.ar    
  19 C19            1.4640    -1.7914     3.6520 C.ar    
  20 C20           -1.1201    -1.5939     4.6318 C.ar    
  21 C21           -0.0426    -1.2878     5.4456 C.ar    
  22 Cl22           3.2336     3.0458     1.9953 Cl      
  23 F23           -0.2510    -0.8949     6.7213 F       
  24 H24           -1.0706     2.3908     0.2572 H       
  25 H25           -1.0353    -0.2767     0.5807 H       
  26 H26            1.4113     3.1884    -0.0066 H       
  27 H27            5.6622    -0.4777    -1.5224 H       
  28 H28            7.0773     1.0366    -0.1981 H       
  29 H29            6.0114     2.6269     1.3879 H       
  30 H30            0.1112    -3.2568     1.1517 H       
  31 H31           -1.7503    -2.2338     2.6926 H       
  32 H32            2.0878    -1.1553     5.5939 H       
  33 H33            2.4712    -1.8708     3.2704 H       
  34 H34           -2.1262    -1.5179     5.0172 H       
@<TRIPOS>BOND
   1    1    2 1
   2    1    5 2
   3    1   24 1
   4    2    3 2
   5    2   25 1
   6    3    4 1
   7    3   12 1
   8    4    5 1
   9    4    6 1
  10    5   26 1
  11    6    7 ar
  12    6    8 ar
  13    7   22 1
  14    7   11 ar
  15    8    9 ar
  16    9   10 ar
  17    9   27 1
  18   10   11 ar
  19   10   28 1
  20   11   29 1
  21   12   13 2
  22   12   14 2
  23   12   15 am
  24   15   16 1
  25   15   30 1
  26   16   17 ar
  27   16   19 ar
  28   17   20 ar
  29   17   31 1
  30   18   19 ar
  31   18   21 ar
  32   18   32 1
  33   19   33 1
  34   20   21 ar
  35   20   34 1
  36   21   23 1

#	End of record

