#	Name: ASD01900109
#	Creating user name:	WinNT
#	Creation time:	15. 06. 2019 19:51

#	Modifying user name:	WinNT
#	Modification time:	15. 06. 2019 19:51

#	Program:	/corina/corina34_cracker 3.40 0067  02.08.2006

@<TRIPOS>MOLECULE
ASD01900109
  32   34    0    0    0
SMALL
NO_CHARGES


@<TRIPOS>ATOM
   1 C1            -0.0168     1.3890     0.0097 C.ar    
   2 C2             0.0021    -0.0041     0.0020 C.ar    
   3 C3             1.2224    -0.6606    -0.0131 C.ar    
   4 C4             2.3820     0.0992    -0.0201 C.ar    
   5 C5             2.2884     1.4815    -0.0118 C.ar    
   6 N6             1.1169     2.0792     0.0026 N.ar    
   7 C7            -1.3131     2.1060     0.0197 C.2     
   8 O8            -2.3544     1.4790     0.0212 O.2     
   9 N9            -1.3379     3.4535     0.0271 N.am    
  10 N10           -4.0732     5.7272     0.0534 N.am    
  11 N11           -4.7377     4.4942     0.0499 N.2     
  12 C12           -3.8404     3.5422     0.0399 C.2     
  13 C13           -2.5688     4.1343     0.0366 C.2     
  14 C14           -2.7375     5.4816     0.0451 C.2     
  15 S15           -4.7895     7.2203     0.0593 S.o2    
  16 O16           -3.8372     8.1244    -0.4836 O.2     
  17 O17           -6.0907     7.0433    -0.4837 O.2     
  18 O18           -4.6795     8.5202     3.7308 O.3     
  19 C19           -4.1404     8.3642     2.5107 C.2     
  20 C20           -5.0126     7.6851     1.7442 C.2     
  21 C21           -6.1430     7.4165     2.5497 C.2     
  22 C22           -5.8940     7.9475     3.7603 C.2     
  23 H23           -0.9212    -0.5644     0.0082 H       
  24 H24            1.2690    -1.7395    -0.0190 H       
  25 H25            3.3489    -0.3818    -0.0315 H       
  26 H26            3.1898     2.0764    -0.0168 H       
  27 H27           -0.5069     3.9539     0.0259 H       
  28 H28           -4.0440     2.4815     0.0350 H       
  29 H29           -1.9523     6.2231     0.0452 H       
  30 H30           -3.1710     8.7233     2.1978 H       
  31 H31           -7.0354     6.8869     2.2505 H       
  32 H32           -6.5580     7.9183     4.6115 H       
@<TRIPOS>BOND
   1    1    2 ar
   2    1    6 ar
   3    1    7 1
   4    2    3 ar
   5    2   23 1
   6    3    4 ar
   7    3   24 1
   8    4    5 ar
   9    4   25 1
  10    5    6 ar
  11    5   26 1
  12    7    8 2
  13    7    9 am
  14    9   13 1
  15    9   27 1
  16   10   11 1
  17   10   14 1
  18   10   15 am
  19   11   12 2
  20   12   13 1
  21   12   28 1
  22   13   14 2
  23   14   29 1
  24   15   16 2
  25   15   17 2
  26   15   20 1
  27   18   19 1
  28   18   22 1
  29   19   20 2
  30   19   30 1
  31   20   21 1
  32   21   22 2
  33   21   31 1
  34   22   32 1

#	End of record

