#	Name: ASD00890013
#	Creating user name:	WinNT
#	Creation time:	15. 06. 2019 18:53

#	Modifying user name:	WinNT
#	Modification time:	15. 06. 2019 18:53

#	Program:	/corina/corina34_cracker 3.40 0067  02.08.2006

@<TRIPOS>MOLECULE
ASD00890013
  37   39    0    0    0
SMALL
NO_CHARGES


@<TRIPOS>ATOM
   1 O1             7.7438    -2.5094     3.6832 O.2     
   2 N2             0.4859     1.9853    -0.1344 N.pl3   
   3 N3             0.3621     0.5908    -0.1260 N.2     
   4 N4             5.7914    -3.0717     4.5679 N.2     
   5 N5             7.0147    -2.1042     6.2962 N.pl3   
   6 N6             5.3897    -3.7553     6.7567 N.pl3   
   7 C7             4.6018     0.1342     0.8434 C.ar    
   8 C8             3.9726     0.9774    -0.1025 C.ar    
   9 C9             6.0137     0.0163     0.8338 C.ar    
  10 C10            2.4969     1.1190    -0.1138 C.2     
  11 C11            3.8487    -0.5881     1.7828 C.ar    
  12 C12            4.7474     1.6688    -1.0162 C.ar    
  13 C13            6.6428    -0.8189     1.7700 C.ar    
  14 C14            6.7631     0.7373    -0.1136 C.ar    
  15 C15            5.8739    -1.5138     2.6872 C.ar    
  16 C16            6.1324     1.5424    -1.0126 C.ar    
  17 C17            4.4739    -1.3924     2.6817 C.ar    
  18 C18            1.7985     2.2925    -0.1268 C.2     
  19 C19            1.5589     0.0671    -0.1137 C.2     
  20 C20            6.5309    -2.3967     3.6777 C.2     
  21 C21           -0.6204     2.9455    -0.1544 C.3     
  22 C22            6.0626    -2.9780     5.8609 C.2     
  23 H23            2.7720    -0.5040     1.7911 H       
  24 H24            4.2717     2.3134    -1.7405 H       
  25 H25            7.7182    -0.9189     1.7743 H       
  26 H26            7.8397     0.6528    -0.1274 H       
  27 H27            6.7175     2.0914    -1.7356 H       
  28 H28            2.2211     3.2864    -0.1306 H       
  29 H29            3.8878    -1.9446     3.4015 H       
  30 H30            1.7893    -0.9880    -0.1050 H       
  31 H31           -0.9068     3.1912     0.8682 H       
  32 H32           -0.3055     3.8519    -0.6713 H       
  33 H33           -1.4721     2.5076    -0.6750 H       
  34 H34            4.7125    -4.3768     6.4471 H       
  35 H35            5.5884    -3.6867     7.7037 H       
  36 H36            7.4230    -1.4821     5.6740 H       
  37 H37            7.2837    -2.1048     7.2282 H       
@<TRIPOS>BOND
   1    1   20 2
   2    2    3 1
   3    2   18 1
   4    2   21 1
   5    3   19 2
   6    4   20 1
   7    4   22 2
   8    5   22 1
   9    5   36 1
  10    5   37 1
  11    6   22 1
  12    6   34 1
  13    6   35 1
  14    7    8 ar
  15    7    9 ar
  16    7   11 ar
  17    8   10 1
  18    8   12 ar
  19    9   13 ar
  20    9   14 ar
  21   10   18 2
  22   10   19 1
  23   11   17 ar
  24   11   23 1
  25   12   16 ar
  26   12   24 1
  27   13   15 ar
  28   13   25 1
  29   14   16 ar
  30   14   26 1
  31   15   17 ar
  32   15   20 1
  33   16   27 1
  34   17   29 1
  35   18   28 1
  36   19   30 1
  37   21   31 1
  38   21   32 1
  39   21   33 1

#	End of record

