#	Name: ASD01912832
#	Creating user name:	WinNT
#	Creation time:	15. 06. 2019 20:00

#	Modifying user name:	WinNT
#	Modification time:	15. 06. 2019 20:00

#	Program:	/corina/corina34_cracker 3.40 0067  02.08.2006

@<TRIPOS>MOLECULE
ASD01912832
  52   56    0    0    0
SMALL
NO_CHARGES


@<TRIPOS>ATOM
   1 C1            -0.0165     1.3669     0.0096 C.2     
   2 N2             0.0021    -0.0041     0.0020 N.pl3   
   3 C3            -1.2023    -0.6921     0.0098 C.2     
   4 C4            -2.3629    -0.0500     0.0239 C.2     
   5 N5            -2.4359     1.3309     0.0320 N.am    
   6 C6            -1.3019     2.0668     0.0309 C.2     
   7 C7             1.3014     1.7837    -0.0008 C.2     
   8 C8             2.0550     0.6110    -0.0143 C.2     
   9 N9             1.2244    -0.4045    -0.0118 N.2     
  10 O10           -1.3488     3.2837     0.0380 O.2     
  11 C11           -3.6787     1.9639     0.0468 C.ar    
  12 C12            3.5595     0.5249    -0.0295 C.3     
  13 O13            4.1120     1.8427    -0.0282 O.3     
  14 C14            5.4672     1.9435    -0.0410 C.ar    
  15 C15            6.0711     3.1925    -0.0405 C.ar    
  16 C16            7.4489     3.2923    -0.0536 C.ar    
  17 C17            8.2259     2.1487    -0.0672 C.ar    
  18 C18            7.6265     0.9027    -0.0682 C.ar    
  19 C19            6.2492     0.7976    -0.0489 C.ar    
  20 N20           -3.7440     3.2830    -0.0458 N.ar    
  21 C21           -4.8375     1.2037     0.1528 C.ar    
  22 C22           -6.0642     1.8446     0.1663 C.ar    
  23 C23           -6.0890     3.2291     0.0728 C.ar    
  24 C24           -4.8982     3.9209    -0.0357 C.ar    
  25 C25           -4.9180     5.4244    -0.1370 C.3     
  26 C26           -5.1243     5.8369    -1.5977 C.3     
  27 C27           -6.0698     5.9797     0.7064 C.3     
  28 C28           -6.1309     7.4997     0.5350 C.3     
  29 O29           -6.2926     7.8155    -0.8493 O.3     
  30 C30           -5.2218     7.3624    -1.6801 C.3     
  31 H31           -1.1950    -1.7721     0.0039 H       
  32 H32           -3.2784    -0.6229     0.0288 H       
  33 H33            1.6684     2.7994     0.0012 H       
  34 H34            3.9016    -0.0134     0.8543 H       
  35 H35            3.8840    -0.0042    -0.9255 H       
  36 H36            5.4646     4.0861    -0.0302 H       
  37 H37            7.9195     4.2644    -0.0536 H       
  38 H38            9.3029     2.2288    -0.0775 H       
  39 H39            8.2356     0.0109    -0.0796 H       
  40 H40            5.7814    -0.1759    -0.0497 H       
  41 H41           -4.7814     0.1275     0.2233 H       
  42 H42           -6.9813     1.2800     0.2473 H       
  43 H43           -7.0296     3.7597     0.0801 H       
  44 H44           -3.9720     5.8268     0.2254 H       
  45 H45           -4.2805     5.4930    -2.1960 H       
  46 H46           -6.0450     5.3920    -1.9753 H       
  47 H47           -7.0096     5.5377     0.3754 H       
  48 H48           -5.9023     5.7379     1.7559 H       
  49 H49           -6.9753     7.8955     1.0992 H       
  50 H50           -5.2066     7.9445     0.9037 H       
  51 H51           -4.2857     7.8054    -1.3404 H       
  52 H52           -5.4114     7.6594    -2.7116 H       
@<TRIPOS>BOND
   1    1    2 1
   2    1    7 2
   3    1    6 1
   4    2    3 1
   5    2    9 1
   6    3    4 2
   7    3   31 1
   8    4    5 1
   9    4   32 1
  10    5    6 am
  11    5   11 1
  12    6   10 2
  13    7    8 1
  14    7   33 1
  15    8    9 2
  16    8   12 1
  17   11   20 ar
  18   11   21 ar
  19   12   13 1
  20   12   34 1
  21   12   35 1
  22   13   14 1
  23   14   15 ar
  24   14   19 ar
  25   15   16 ar
  26   15   36 1
  27   16   17 ar
  28   16   37 1
  29   17   18 ar
  30   17   38 1
  31   18   19 ar
  32   18   39 1
  33   19   40 1
  34   20   24 ar
  35   21   22 ar
  36   21   41 1
  37   22   23 ar
  38   22   42 1
  39   23   24 ar
  40   23   43 1
  41   24   25 1
  42   25   26 1
  43   25   27 1
  44   25   44 1
  45   26   30 1
  46   26   45 1
  47   26   46 1
  48   27   28 1
  49   27   47 1
  50   27   48 1
  51   28   29 1
  52   28   49 1
  53   28   50 1
  54   29   30 1
  55   30   51 1
  56   30   52 1

#	End of record

