#	Name: ASD01948304
#	Creating user name:	WinNT
#	Creation time:	15. 06. 2019 20:14

#	Modifying user name:	WinNT
#	Modification time:	15. 06. 2019 20:14

#	Program:	/corina/corina34_cracker 3.40 0067  02.08.2006

@<TRIPOS>MOLECULE
ASD01948304
  47   49    0    0    0
SMALL
NO_CHARGES


@<TRIPOS>ATOM
   1 C1             0.4887     1.1771    -0.6793 C.2     
   2 N2             0.7832    -0.1453    -0.8523 N.am    
   3 C3             2.0461    -0.5963    -0.7413 C.2     
   4 C4             2.8030     1.6329    -0.2663 C.2     
   5 C5             1.4632     2.0717    -0.3906 C.2     
   6 C6             2.7390     3.0696     2.1226 C.ar    
   7 C7             3.7643     3.2811     1.2091 C.ar    
   8 N8             3.8154     2.5349     0.0287 N.pl3   
   9 C9             2.6910     3.8089     3.2877 C.ar    
  10 C10            3.6626     4.7596     3.5461 C.ar    
  11 C11            4.6846     4.9725     2.6387 C.ar    
  12 C12            4.7382     4.2362     1.4713 C.ar    
  13 N13            1.1461     3.4282    -0.2153 N.am    
  14 S14           -0.3944     3.9625    -0.5044 S.o2    
  15 N15           -0.6254     3.9286    -2.1439 N.am    
  16 O16            2.2842    -1.7846    -0.9006 O.2     
  17 C17           -0.2421    -1.0431    -1.1484 C.2     
  18 C18            5.8523     4.4685     0.4835 C.3     
  19 I19            3.5856     5.8789     5.3153 I       
  20 C20           -1.3982     2.8430    -2.7525 C.3     
  21 C21           -0.0569     4.9843    -2.9857 C.3     
  22 O22           -1.2677     2.9849     0.0441 O.2     
  23 O23           -0.4226     5.3312    -0.1234 O.2     
  24 C24            3.0879     0.2892    -0.4447 C.2     
  25 F25            4.3568    -0.1611    -0.3331 F       
  26 O26           -1.5430    -0.7347    -1.2883 O.3     
  27 C27           -0.0973    -2.3736    -1.3502 C.2     
  28 C28           -1.3852    -2.8877    -1.6202 C.2     
  29 C29           -2.2396    -1.8494    -1.5723 C.2     
  30 H30           -0.5327     1.5139    -0.7784 H       
  31 H31            1.9779     2.3308     1.9194 H       
  32 H32            4.5587     2.6473    -0.5844 H       
  33 H33            1.8941     3.6452     3.9980 H       
  34 H34            5.4411     5.7158     2.8428 H       
  35 H35            1.8294     4.0524     0.0752 H       
  36 H36            6.6903     3.8130     0.7203 H       
  37 H37            5.4956     4.2529    -0.5237 H       
  38 H38            6.1767     5.5076     0.5394 H       
  39 H39           -2.4503     3.1247    -2.7936 H       
  40 H40           -1.0319     2.6580    -3.7623 H       
  41 H41           -1.2873     1.9385    -2.1544 H       
  42 H42            0.4056     5.7429    -2.3543 H       
  43 H43            0.6949     4.5554    -3.6482 H       
  44 H44           -0.8482     5.4401    -3.5809 H       
  45 H45            0.8251    -2.9341    -1.3124 H       
  46 H46           -1.6357    -3.9173    -1.8286 H       
  47 H47           -3.3060    -1.9024    -1.7344 H       
@<TRIPOS>BOND
   1    1    2 1
   2    1    5 2
   3    1   30 1
   4    2    3 am
   5    2   17 1
   6    3   24 1
   7    3   16 2
   8    4    5 1
   9    4    8 1
  10    4   24 2
  11    5   13 1
  12    6    7 ar
  13    6    9 ar
  14    6   31 1
  15    7    8 1
  16    7   12 ar
  17    8   32 1
  18    9   10 ar
  19    9   33 1
  20   10   11 ar
  21   10   19 1
  22   11   12 ar
  23   11   34 1
  24   12   18 1
  25   13   14 am
  26   13   35 1
  27   14   15 am
  28   14   22 2
  29   14   23 2
  30   15   20 1
  31   15   21 1
  32   17   26 1
  33   17   27 2
  34   18   36 1
  35   18   37 1
  36   18   38 1
  37   20   39 1
  38   20   40 1
  39   20   41 1
  40   21   42 1
  41   21   43 1
  42   21   44 1
  43   24   25 1
  44   26   29 1
  45   27   28 1
  46   27   45 1
  47   28   29 2
  48   28   46 1
  49   29   47 1

#	End of record

