#	Name: ASD03320033
#	Creating user name:	WinNT
#	Creation time:	15. 06. 2019 20:36

#	Modifying user name:	WinNT
#	Modification time:	15. 06. 2019 20:36

#	Program:	/corina/corina34_cracker 3.40 0067  02.08.2006

@<TRIPOS>MOLECULE
ASD03320033
  60   64    0    0    0
SMALL
NO_CHARGES


@<TRIPOS>ATOM
   1 C1            -0.0297     1.2828    -0.1839 C.ar    
   2 C2             0.0214    -0.0949    -0.3950 C.ar    
   3 C3             1.1261     2.0303    -0.2299 C.ar    
   4 C4             2.3496     1.4083    -0.4880 C.ar    
   5 C5             2.3997     0.0288    -0.6993 C.ar    
   6 C6             1.2427    -0.7170    -0.6528 C.ar    
   7 C7             3.5907     2.2098    -0.5380 C.2     
   8 N8             3.5999     3.3990    -1.1723 N.am    
   9 O9             4.6030     1.7964    -0.0071 O.2     
  10 C10           -1.2239    -0.8991    -0.3447 C.ar    
  11 C11           -1.1857    -2.2752    -0.5538 C.ar    
  12 C12           -2.3855    -2.9846    -0.4957 C.ar    
  13 N13           -3.5133    -2.3255    -0.2447 N.ar    
  14 C14           -3.5073    -1.0215    -0.0523 C.ar    
  15 N15           -2.3970    -0.3160    -0.0931 N.ar    
  16 N16           -2.4022    -4.3564    -0.6972 N.pl3   
  17 C17           -3.6026    -5.0651    -0.5850 C.ar    
  18 C18           -3.5997    -6.3680    -0.1012 C.ar    
  19 C19           -4.7882    -7.0649     0.0087 C.ar    
  20 C20           -5.9785    -6.4670    -0.3620 C.ar    
  21 C21           -5.9844    -5.1706    -0.8437 C.ar    
  22 C22           -4.8011    -4.4665    -0.9512 C.ar    
  23 C23            4.7922     4.2573    -1.1352 C.3     
  24 C24            5.2111     4.5767    -2.5756 C.3     
  25 N25            4.0291     5.0380    -3.3171 N.am    
  26 C26            2.8367     4.1797    -3.3542 C.3     
  27 C27            2.4198     3.8578    -1.9185 C.3     
  28 C28            4.0383     6.2272    -3.9514 C.2     
  29 C29            5.2795     7.0258    -4.0055 C.ar    
  30 O30            3.0248     6.6425    -4.4790 O.2     
  31 C31            5.2656     8.3723    -3.6293 C.ar    
  32 C32            6.4328     9.1126    -3.6826 C.ar    
  33 C33            7.6089     8.5234    -4.1062 C.ar    
  34 C34            7.6283     7.1903    -4.4799 C.ar    
  35 C35            6.4742     6.4381    -4.4271 C.ar    
  36 F36            4.1158     8.9486    -3.2155 F       
  37 Cl37          -2.1053    -7.1193     0.3638 Cl      
  38 H38           -0.9766     1.7642     0.0113 H       
  39 H39            1.0863     3.0971    -0.0667 H       
  40 H40            3.3453    -0.4530    -0.8993 H       
  41 H41            1.2813    -1.7839    -0.8162 H       
  42 H42           -0.2524    -2.7796    -0.7558 H       
  43 H43           -4.4410    -0.5176     0.1494 H       
  44 H44           -1.5813    -4.8245    -0.9160 H       
  45 H45           -4.7871    -8.0776     0.3841 H       
  46 H46           -6.9059    -7.0138    -0.2756 H       
  47 H47           -6.9160    -4.7070    -1.1327 H       
  48 H48           -4.8069    -3.4542    -1.3275 H       
  49 H49            4.5606     5.1827    -0.6079 H       
  50 H50            5.6026     3.7360    -0.6257 H       
  51 H51            5.9689     5.3602    -2.5711 H       
  52 H52            5.6118     3.6796    -3.0475 H       
  53 H53            2.0264     4.7010    -3.8638 H       
  54 H54            3.0684     3.2543    -3.8815 H       
  55 H55            1.6621     3.0743    -1.9245 H       
  56 H56            2.0193     4.7538    -1.4442 H       
  57 H57            6.4250    10.1530    -3.3929 H       
  58 H58            8.5175     9.1059    -4.1463 H       
  59 H59            8.5515     6.7372    -4.8098 H       
  60 H60            6.4922     5.3985    -4.7192 H       
@<TRIPOS>BOND
   1    1    2 ar
   2    1    3 ar
   3    1   38 1
   4    2   10 1
   5    2    6 ar
   6    3    4 ar
   7    3   39 1
   8    4    5 ar
   9    4    7 1
  10    5    6 ar
  11    5   40 1
  12    6   41 1
  13    7    8 am
  14    7    9 2
  15    8   23 1
  16    8   27 1
  17   10   11 ar
  18   10   15 ar
  19   11   12 ar
  20   11   42 1
  21   12   13 ar
  22   12   16 1
  23   13   14 ar
  24   14   15 ar
  25   14   43 1
  26   16   17 1
  27   16   44 1
  28   17   18 ar
  29   17   22 ar
  30   18   19 ar
  31   18   37 1
  32   19   20 ar
  33   19   45 1
  34   20   21 ar
  35   20   46 1
  36   21   22 ar
  37   21   47 1
  38   22   48 1
  39   23   24 1
  40   23   49 1
  41   23   50 1
  42   24   25 1
  43   24   51 1
  44   24   52 1
  45   25   26 1
  46   25   28 am
  47   26   27 1
  48   26   53 1
  49   26   54 1
  50   27   55 1
  51   27   56 1
  52   28   29 1
  53   28   30 2
  54   29   31 ar
  55   29   35 ar
  56   31   32 ar
  57   31   36 1
  58   32   33 ar
  59   32   57 1
  60   33   34 ar
  61   33   58 1
  62   34   35 ar
  63   34   59 1
  64   35   60 1

#	End of record

