#	Name: ASD01140227
#	Creating user name:	WinNT
#	Creation time:	15. 06. 2019 19:00

#	Modifying user name:	WinNT
#	Modification time:	15. 06. 2019 19:00

#	Program:	/corina/corina34_cracker 3.40 0067  02.08.2006

@<TRIPOS>MOLECULE
ASD01140227
  45   48    0    0    0
SMALL
NO_CHARGES


@<TRIPOS>ATOM
   1 C1             0.0424     1.1692     0.2014 C.ar    
   2 C2             0.1434    -0.2011     0.2794 C.ar    
   3 C3             1.4025    -0.8074     0.2592 C.ar    
   4 C4             2.5462    -0.0271     0.1485 C.ar    
   5 C5             2.4479     1.3677     0.0571 C.ar    
   6 C6             1.1840     1.9606     0.1021 C.ar    
   7 N7             1.0205     3.3484     0.0839 N.pl3   
   8 C8             3.6891     2.1317    -0.1145 C.2     
   9 N9             4.0127     3.2465     0.4410 N.2     
  10 C10            3.1262     3.9190     1.3977 C.3     
  11 C11            1.5134    -2.2320     0.3530 C.1     
  12 C12            4.6895     1.5497    -1.0375 C.ar    
  13 C13            5.9218     1.1138    -0.5507 C.ar    
  14 C14            6.8501     0.5723    -1.4157 C.ar    
  15 C15            6.5623     0.4603    -2.7646 C.ar    
  16 C16            5.3433     0.8897    -3.2560 C.ar    
  17 C17            4.4014     1.4291    -2.3996 C.ar    
  18 N18            0.1737     5.3128    -0.2609 N.2     
  19 C19            0.0105     4.0436    -0.5062 C.2     
  20 C20            1.8430     4.2489     0.6787 C.2     
  21 C21            1.3014     5.4807     0.4799 C.2     
  22 C22            1.6043    -3.3999     0.4299 C.1     
  23 C23            1.8377     6.7601     0.9755 C.2     
  24 O24            2.8618     6.7771     1.6314 O.2     
  25 N25            1.1935     7.9120     0.7020 N.am    
  26 C26            1.7267     9.1843     1.1949 C.3     
  27 C27            2.8362     2.9894     2.5778 C.3     
  28 F28            3.2082     1.8435    -2.8791 F       
  29 H29           -0.9319     1.6350     0.2128 H       
  30 H30           -0.7479    -0.8062     0.3563 H       
  31 H31            3.5177    -0.4985     0.1332 H       
  32 H32            3.5961     4.8350     1.7559 H       
  33 H33            6.1490     1.2005     0.5016 H       
  34 H34            7.8045     0.2351    -1.0390 H       
  35 H35            7.2934     0.0358    -3.4367 H       
  36 H36            5.1250     0.7999    -4.3099 H       
  37 H37           -0.7947     3.6136    -1.0834 H       
  38 H38            1.6856    -4.4445     0.4987 H       
  39 H39            0.3767     7.8985     0.1789 H       
  40 H40            1.0758     9.9987     0.8768 H       
  41 H41            1.7740     9.1611     2.2836 H       
  42 H42            2.7271     9.3399     0.7910 H       
  43 H43            3.7712     2.7298     3.0742 H       
  44 H44            2.1776     3.4942     3.2846 H       
  45 H45            2.3531     2.0820     2.2154 H       
@<TRIPOS>BOND
   1    1    2 ar
   2    1    6 ar
   3    1   29 1
   4    2    3 ar
   5    2   30 1
   6    3    4 ar
   7    3   11 1
   8    4    5 ar
   9    4   31 1
  10    5    6 ar
  11    5    8 1
  12    6    7 1
  13    7   20 1
  14    7   19 1
  15    8    9 2
  16    8   12 1
  17    9   10 1
  18   10   27 1
  19   10   20 1
  20   10   32 1
  21   11   22 3
  22   12   13 ar
  23   12   17 ar
  24   13   14 ar
  25   13   33 1
  26   14   15 ar
  27   14   34 1
  28   15   16 ar
  29   15   35 1
  30   16   17 ar
  31   16   36 1
  32   17   28 1
  33   18   19 2
  34   18   21 1
  35   19   37 1
  36   20   21 2
  37   21   23 1
  38   22   38 1
  39   23   24 2
  40   23   25 am
  41   25   26 1
  42   25   39 1
  43   26   40 1
  44   26   41 1
  45   26   42 1
  46   27   43 1
  47   27   44 1
  48   27   45 1

#	End of record

