#	Name: ASD07300788
#	Creating user name:	WinNT
#	Creation time:	15. 06. 2019 21:10

#	Modifying user name:	WinNT
#	Modification time:	15. 06. 2019 21:10

#	Program:	/corina/corina34_cracker 3.40 0067  02.08.2006

@<TRIPOS>MOLECULE
ASD07300788
  51   55    0    0    0
SMALL
NO_CHARGES


@<TRIPOS>ATOM
   1 C1            -0.0034     1.3925     0.2414 C.2     
   2 C2             0.0021    -0.0041     0.0020 C.2     
   3 N3             1.1924     2.0682     0.2265 N.pl3   
   4 N4             1.1445    -0.6201    -0.2278 N.2     
   5 C5             2.3036     0.0470    -0.2402 C.2     
   6 C6             2.3503     1.3751    -0.0178 C.2     
   7 N7            -0.9664     2.2611     0.5002 N.2     
   8 C8            -0.4399     3.4746     0.6473 C.2     
   9 C9             0.9141     3.3817     0.4814 C.2     
  10 N10            2.8659     6.4365     0.3080 N.pl3   
  11 N11            3.7008     5.6277     1.0883 N.2     
  12 C12            3.1256     4.4650     1.2455 C.2     
  13 C13            1.8915     4.4909     0.5644 C.2     
  14 C14            1.7618     5.7258    -0.0049 C.2     
  15 C15            3.1404     7.8182    -0.0944 C.3     
  16 O16            4.6515     8.2408     1.7773 O.3     
  17 C17            3.4225     8.6648     1.1484 C.3     
  18 C18            3.6698    10.1371     0.7513 C.3     
  19 C19            4.7793    10.6057     1.7192 C.3     
  20 C20            5.0711     9.3611     2.5865 C.3     
  21 N21           -1.1860    -0.7178     0.0100 N.pl3   
  22 C22           -2.4813    -0.0311     0.1360 C.3     
  23 C23           -3.4038    -0.5300    -0.9821 C.3     
  24 O24           -3.4381    -1.9591    -0.9615 O.3     
  25 C25           -2.1747    -2.5786    -1.2141 C.3     
  26 C26           -1.1896    -2.1841    -0.1135 C.3     
  27 C27           -1.2060     4.7365     0.9503 C.3     
  28 H28            3.2209    -0.4898    -0.4320 H       
  29 H29            3.2979     1.8930    -0.0323 H       
  30 H30            3.5260     3.6295     1.8005 H       
  31 H31            0.9275     6.0708    -0.5976 H       
  32 H32            4.0087     7.8391    -0.7530 H       
  33 H33            2.2755     8.2220    -0.6206 H       
  34 H34            2.5924     8.5939     1.8513 H       
  35 H35            4.0117    10.2018    -0.2816 H       
  36 H36            2.7649    10.7280     0.8929 H       
  37 H37            5.6697    10.9020     1.1647 H       
  38 H38            4.4229    11.4283     2.3392 H       
  39 H39            4.4942     9.3988     3.5106 H       
  40 H40            6.1366     9.2928     2.8059 H       
  41 H41           -2.9242    -0.2578     1.1059 H       
  42 H42           -2.3372     1.0450     0.0402 H       
  43 H43           -4.4093    -0.1394    -0.8259 H       
  44 H44           -3.0254    -0.1888    -1.9457 H       
  45 H45           -2.2959    -3.6617    -1.2248 H       
  46 H46           -1.7918    -2.2448    -2.1785 H       
  47 H47           -0.1904    -2.5330    -0.3744 H       
  48 H48           -1.5001    -2.6313     0.8308 H       
  49 H49           -1.2753     4.8690     2.0300 H       
  50 H50           -0.6885     5.5898     0.5120 H       
  51 H51           -2.2083     4.6633     0.5282 H       
@<TRIPOS>BOND
   1    1    2 1
   2    1    3 1
   3    1    7 2
   4    2    4 2
   5    2   21 1
   6    3    6 1
   7    3    9 1
   8    4    5 1
   9    5    6 2
  10    5   28 1
  11    6   29 1
  12    7    8 1
  13    8    9 2
  14    8   27 1
  15    9   13 1
  16   10   11 1
  17   10   14 1
  18   10   15 1
  19   11   12 2
  20   12   13 1
  21   12   30 1
  22   13   14 2
  23   14   31 1
  24   15   17 1
  25   15   32 1
  26   15   33 1
  27   16   17 1
  28   16   20 1
  29   17   18 1
  30   17   34 1
  31   18   19 1
  32   18   35 1
  33   18   36 1
  34   19   20 1
  35   19   37 1
  36   19   38 1
  37   20   39 1
  38   20   40 1
  39   21   22 1
  40   21   26 1
  41   22   23 1
  42   22   41 1
  43   22   42 1
  44   23   24 1
  45   23   43 1
  46   23   44 1
  47   24   25 1
  48   25   26 1
  49   25   45 1
  50   25   46 1
  51   26   47 1
  52   26   48 1
  53   27   49 1
  54   27   50 1
  55   27   51 1

#	End of record

