#	Name: ASD01812863
#	Creating user name:	WinNT
#	Creation time:	15. 06. 2019 19:29

#	Modifying user name:	WinNT
#	Modification time:	15. 06. 2019 19:29

#	Program:	/corina/corina34_cracker 3.40 0067  02.08.2006

@<TRIPOS>MOLECULE
ASD01812863
  51   55    0    0    0
SMALL
NO_CHARGES


@<TRIPOS>ATOM
   1 N1            -0.0158     1.3146     0.0093 N.ar    
   2 C2             0.0021    -0.0041     0.0020 C.ar    
   3 C3             1.1989    -0.7034    -0.0127 C.ar    
   4 C4             2.3830    -0.0016    -0.0202 C.ar    
   5 C5             2.3451     1.3976    -0.0128 C.ar    
   6 C6             1.0957     2.0332     0.0025 C.ar    
   7 C7             3.8375    -0.3894    -0.0358 C.3     
   8 N8             4.5957     0.8679    -0.0366 N.am    
   9 C9             3.7284     1.8957    -0.0233 C.2     
  10 C10            6.0561     0.9838    -0.0501 C.3     
  11 C11            6.5431     1.0309    -1.4754 C.ar    
  12 C12            6.4760     2.2163    -2.1890 C.ar    
  13 C13            6.9218     2.2637    -3.4970 C.ar    
  14 C14            7.4384     1.1170    -4.0953 C.ar    
  15 C15            7.5029    -0.0722    -3.3719 C.ar    
  16 C16            7.0607    -0.1080    -2.0650 C.ar    
  17 O17            1.0259     3.3855     0.0100 O.3     
  18 O18            4.0434     3.0701    -0.0199 O.2     
  19 C19           -0.2049     3.9605     0.0244 C.ar    
  20 C20           -0.8222     4.2481     1.2371 C.ar    
  21 C21           -2.0718     4.8324     1.2555 C.ar    
  22 C22           -2.7174     5.1354     0.0538 C.ar    
  23 C23           -2.0942     4.8450    -1.1628 C.ar    
  24 C24           -0.8422     4.2655    -1.1736 C.ar    
  25 C25           -4.0147     5.7415     0.0690 C.1     
  26 F26           -0.1975     3.9544     2.3985 F       
  27 C27            7.9180     1.1614    -5.4992 C.2     
  28 F28           -0.2366     3.9896    -2.3493 F       
  29 N29           -5.0439     6.2223     0.0810 N.1     
  30 F30            5.9742     3.3272    -1.6065 F       
  31 N31            7.9167     2.2173    -6.2850 N.2     
  32 C32            8.4607     0.0825    -6.2240 C.2     
  33 C33            8.7741     0.5296    -7.4595 C.2     
  34 N34            8.4550     1.8402    -7.5219 N.pl3   
  35 C35            8.6350     2.7145    -8.6836 C.3     
  36 H36           -0.9309    -0.5480     0.0080 H       
  37 H37            1.2023    -1.7834    -0.0178 H       
  38 H38            4.0795    -0.9725     0.8527 H       
  39 H39            4.0627    -0.9635    -0.9345 H       
  40 H40            6.3529     1.8970     0.4657 H       
  41 H41            6.4936     0.1226     0.4550 H       
  42 H42            6.8693     3.1877    -4.0536 H       
  43 H43            7.9028    -0.9638    -3.8319 H       
  44 H44            7.1148    -1.0286    -1.5029 H       
  45 H45           -2.5507     5.0551     2.1976 H       
  46 H46           -2.5904     5.0775    -2.0935 H       
  47 H47            8.6012    -0.9235    -5.8570 H       
  48 H48            9.2101    -0.0563    -8.2552 H       
  49 H49            9.6196     3.1800    -8.6389 H       
  50 H50            8.5524     2.1261    -9.5974 H       
  51 H51            7.8669     3.4879    -8.6788 H       
@<TRIPOS>BOND
   1    1    2 ar
   2    1    6 ar
   3    2    3 ar
   4    2   36 1
   5    3    4 ar
   6    3   37 1
   7    4    7 1
   8    4    5 ar
   9    5    6 ar
  10    5    9 1
  11    6   17 1
  12    7    8 1
  13    7   38 1
  14    7   39 1
  15    8    9 am
  16    8   10 1
  17    9   18 2
  18   10   11 1
  19   10   40 1
  20   10   41 1
  21   11   12 ar
  22   11   16 ar
  23   12   13 ar
  24   12   30 1
  25   13   14 ar
  26   13   42 1
  27   14   15 ar
  28   14   27 1
  29   15   16 ar
  30   15   43 1
  31   16   44 1
  32   17   19 1
  33   19   20 ar
  34   19   24 ar
  35   20   21 ar
  36   20   26 1
  37   21   22 ar
  38   21   45 1
  39   22   23 ar
  40   22   25 1
  41   23   24 ar
  42   23   46 1
  43   24   28 1
  44   25   29 3
  45   27   32 1
  46   27   31 2
  47   31   34 1
  48   32   33 2
  49   32   47 1
  50   33   34 1
  51   33   48 1
  52   34   35 1
  53   35   49 1
  54   35   50 1
  55   35   51 1

#	End of record

