#	Name: ASD05430408
#	Creating user name:	WinNT
#	Creation time:	15. 06. 2019 21:00

#	Modifying user name:	WinNT
#	Modification time:	15. 06. 2019 21:00

#	Program:	/corina/corina34_cracker 3.40 0067  02.08.2006

@<TRIPOS>MOLECULE
ASD05430408
  59   63    0    0    0
SMALL
NO_CHARGES


@<TRIPOS>ATOM
   1 C1            -0.0803     1.1809    -0.3788 C.ar    
   2 C2            -0.0287    -0.0557     0.2654 C.ar    
   3 C3            -1.1786    -0.6011     0.8238 C.ar    
   4 C4            -2.3749     0.0761     0.7443 C.ar    
   5 C5            -2.4347     1.3179     0.0998 C.ar    
   6 C6            -1.2750     1.8695    -0.4576 C.ar    
   7 C7            -4.8728     1.3567    -0.0734 C.2     
   8 C8            -3.7098     2.0423     0.0136 C.2     
   9 C9            -6.1298     2.0248    -0.0099 C.2     
  10 O10            1.0467     1.7108    -0.9242 O.3     
  11 C11            0.9209     2.9801    -1.5683 C.3     
  12 C12            1.7390    -1.2878     1.4814 C.2     
  13 N13            1.1844    -0.7491     0.3490 N.pl3   
  14 C14            2.9001    -1.8610     1.1122 C.2     
  15 N15            3.0555    -1.6804    -0.2079 N.2     
  16 C16            2.0347    -1.0158    -0.6767 C.2     
  17 C17            3.8597    -2.5806     2.0245 C.3     
  18 N18           -7.3122     1.3279    -0.1344 N.pl3   
  19 C19           -8.3891     2.3098    -0.0115 C.3     
  20 C20           -7.6420     3.6170     0.1840 C.2     
  21 N21           -6.3468     3.3120     0.1651 N.2     
  22 O22           -8.1293     4.7213     0.3285 O.2     
  23 C23           -9.2294     2.3533    -1.2893 C.3     
  24 C24           -9.2528     2.0059     1.1855 C.ar    
  25 C25          -10.4065     1.2597     1.0331 C.ar    
  26 C26           -8.8877     2.4688     2.4359 C.ar    
  27 C27           -9.6785     2.1900     3.5345 C.ar    
  28 C28          -10.8370     1.4472     3.3823 C.ar    
  29 C29          -11.1990     0.9800     2.1302 C.ar    
  30 F30          -11.6108     1.1740     4.4555 F       
  31 C31           -4.8851    -0.1448    -0.2478 C.3     
  32 C32           -6.1106    -0.5673    -1.0591 C.3     
  33 C33           -7.3937    -0.1150    -0.3513 C.3     
  34 O34          -10.2720     3.3193    -1.1412 O.3     
  35 H35           -1.1339    -1.5587     1.3211 H       
  36 H36           -3.2669    -0.3505     1.1785 H       
  37 H37           -1.3162     2.8271    -0.9553 H       
  38 H38           -3.7188     3.1223     0.0197 H       
  39 H39            1.8911     3.2872    -1.9587 H       
  40 H40            0.2073     2.9021    -2.3886 H       
  41 H41            0.5682     3.7192    -0.8490 H       
  42 H42            1.3260    -1.2548     2.4788 H       
  43 H43            1.8900    -0.7265    -1.7071 H       
  44 H44            3.5980    -3.6379     2.0659 H       
  45 H45            4.8748    -2.4723     1.6425 H       
  46 H46            3.8003    -2.1522     3.0250 H       
  47 H47           -8.5954     2.6293    -2.1319 H       
  48 H48           -9.6669     1.3714    -1.4701 H       
  49 H49          -10.6887     0.8954     0.0564 H       
  50 H50           -7.9841     3.0482     2.5544 H       
  51 H51           -9.3928     2.5511     4.5114 H       
  52 H52          -12.1026     0.4008     2.0102 H       
  53 H53           -3.9805    -0.4557    -0.7704 H       
  54 H54           -4.9174    -0.6224     0.7315 H       
  55 H55           -6.0637    -0.1118    -2.0482 H       
  56 H56           -6.1186    -1.6523    -1.1630 H       
  57 H57           -7.4865    -0.6294     0.6052 H       
  58 H58           -8.2575    -0.3420    -0.9763 H       
  59 H59          -10.8457     3.4007    -1.9153 H       
@<TRIPOS>BOND
   1    1    2 ar
   2    1   10 1
   3    1    6 ar
   4    2    3 ar
   5    2   13 1
   6    3    4 ar
   7    3   35 1
   8    4    5 ar
   9    4   36 1
  10    5    6 ar
  11    5    8 1
  12    6   37 1
  13    7    8 2
  14    7   31 1
  15    7    9 1
  16    8   38 1
  17    9   18 1
  18    9   21 2
  19   10   11 1
  20   11   39 1
  21   11   40 1
  22   11   41 1
  23   12   13 1
  24   12   14 2
  25   12   42 1
  26   13   16 1
  27   14   15 1
  28   14   17 1
  29   15   16 2
  30   16   43 1
  31   17   44 1
  32   17   45 1
  33   17   46 1
  34   18   19 1
  35   18   33 1
  36   19   20 1
  37   19   24 1
  38   19   23 1
  39   20   21 1
  40   20   22 2
  41   23   34 1
  42   23   47 1
  43   23   48 1
  44   24   25 ar
  45   24   26 ar
  46   25   29 ar
  47   25   49 1
  48   26   27 ar
  49   26   50 1
  50   27   28 ar
  51   27   51 1
  52   28   29 ar
  53   28   30 1
  54   29   52 1
  55   31   32 1
  56   31   53 1
  57   31   54 1
  58   32   33 1
  59   32   55 1
  60   32   56 1
  61   33   57 1
  62   33   58 1
  63   34   59 1

#	End of record

