#	Name: ASD02560478
#	Creating user name:	WinNT
#	Creation time:	15. 06. 2019 20:25

#	Modifying user name:	WinNT
#	Modification time:	15. 06. 2019 20:25

#	Program:	/corina/corina34_cracker 3.40 0067  02.08.2006

@<TRIPOS>MOLECULE
ASD02560478
  47   50    0    0    0
SMALL
NO_CHARGES


@<TRIPOS>ATOM
   1 C1             0.0160     1.4266     0.3026 C.2     
   2 C2             0.0205     0.0259     0.1767 C.2     
   3 C3             1.1857    -0.6472     0.0976 C.2     
   4 N4             2.3803     0.0204     0.1388 N.pl3   
   5 C5             2.4074     1.3909     0.2615 C.2     
   6 C6             1.1932     2.1051     0.3446 C.2     
   7 C7             3.6774    -0.4085     0.0800 C.2     
   8 C8             4.4734     0.7141     0.1684 C.2     
   9 N9             3.6694     1.7875     0.2774 N.2     
  10 C10            5.9550     0.7346     0.1478 C.ar    
  11 N11            4.1121    -1.7287    -0.0453 N.3     
  12 C12            2.9887    -2.6669     0.0795 C.3     
  13 C13            2.3087    -2.8322    -1.2811 C.3     
  14 C14            6.6697    -0.4572     0.0304 C.ar    
  15 C15            6.6397     1.9469     0.2400 C.ar    
  16 C16            3.5084    -4.0240     0.5581 C.3     
  17 C17            2.3383    -5.0012     0.6881 C.3     
  18 C18            1.6583    -5.1665    -0.6725 C.3     
  19 C19            1.1386    -3.8094    -1.1511 C.3     
  20 C20            8.0497    -0.4350     0.0110 C.ar    
  21 C21            8.7280     0.7659     0.1081 C.ar    
  22 C22            8.0260     1.9580     0.2195 C.ar    
  23 F23            5.9542     3.1060     0.3484 F       
  24 O24            8.6978     3.1362     0.3143 O.3     
  25 C25           10.1252     3.0726     0.2928 C.3     
  26 H26           -0.9200     1.9621     0.3611 H       
  27 H27           -0.9146    -0.5134     0.1436 H       
  28 H28            1.1769    -1.7228     0.0011 H       
  29 H29            1.1991     3.1808     0.4408 H       
  30 H30            4.6033    -1.8665    -0.9158 H       
  31 H31            2.2693    -2.2785     0.8004 H       
  32 H32            1.9384    -1.8654    -1.6221 H       
  33 H33            3.0281    -3.2206    -2.0020 H       
  34 H34            6.1435    -1.3973    -0.0450 H       
  35 H35            4.2278    -4.4124    -0.1628 H       
  36 H36            3.9928    -3.9063     1.5274 H       
  37 H37            2.7086    -5.9680     1.0291 H       
  38 H38            1.6189    -4.6128     1.4090 H       
  39 H39            2.3777    -5.5549    -1.3934 H       
  40 H40            0.8247    -5.8627    -0.5799 H       
  41 H41            0.4192    -3.4210    -0.4302 H       
  42 H42            0.6542    -3.9272    -2.1204 H       
  43 H43            8.6015    -1.3590    -0.0800 H       
  44 H44            9.8078     0.7768     0.0927 H       
  45 H45           10.4747     2.4681     1.1297 H       
  46 H46           10.4547     2.6221    -0.6435 H       
  47 H47           10.5350     4.0793     0.3756 H       
@<TRIPOS>BOND
   1    1    2 1
   2    1    6 2
   3    1   26 1
   4    2    3 2
   5    2   27 1
   6    3    4 1
   7    3   28 1
   8    4    5 1
   9    4    7 1
  10    5    6 1
  11    5    9 2
  12    6   29 1
  13    7    8 2
  14    7   11 1
  15    8    9 1
  16    8   10 1
  17   10   14 ar
  18   10   15 ar
  19   11   12 1
  20   11   30 1
  21   12   16 1
  22   12   13 1
  23   12   31 1
  24   13   19 1
  25   13   32 1
  26   13   33 1
  27   14   20 ar
  28   14   34 1
  29   15   23 1
  30   15   22 ar
  31   16   17 1
  32   16   35 1
  33   16   36 1
  34   17   18 1
  35   17   37 1
  36   17   38 1
  37   18   19 1
  38   18   39 1
  39   18   40 1
  40   19   41 1
  41   19   42 1
  42   20   21 ar
  43   20   43 1
  44   21   22 ar
  45   21   44 1
  46   22   24 1
  47   24   25 1
  48   25   45 1
  49   25   46 1
  50   25   47 1

#	End of record

