#	Name: ASD03240823
#	Creating user name:	WinNT
#	Creation time:	15. 06. 2019 20:35

#	Modifying user name:	WinNT
#	Modification time:	15. 06. 2019 20:35

#	Program:	/corina/corina34_cracker 3.40 0067  02.08.2006

@<TRIPOS>MOLECULE
ASD03240823
  50   54    0    0    0
SMALL
NO_CHARGES


@<TRIPOS>ATOM
   1 C1             0.9129    -0.5943     1.3567 C.3     
   2 S2            -0.0329     0.0733    -0.0399 S.o2    
   3 O3            -1.2332    -0.6639    -0.2271 O.2     
   4 O4            -0.0440     1.4937    -0.0010 O.2     
   5 N5             0.8823    -0.2917    -1.3708 N.am    
   6 C6             2.1711     0.2245    -1.4933 C.ar    
   7 C7             3.2187    -0.6071    -1.8755 C.ar    
   8 C8             4.4935    -0.0996    -1.9968 C.ar    
   9 C9             4.7336     1.2508    -1.7362 C.ar    
  10 C10            3.6803     2.0833    -1.3532 C.ar    
  11 C11            2.4065     1.5716    -1.2385 C.ar    
  12 N12            9.4578     0.6941    -1.2917 N.pl3   
  13 C13           10.7317     1.1820    -1.4028 C.2     
  14 N14           10.9817     2.4283    -1.8420 N.2     
  15 C15           10.0221     3.2472    -2.1888 C.2     
  16 C16            8.6356     2.7957    -2.0968 C.ar    
  17 C17            7.5665     3.6259    -2.4525 C.ar    
  18 C18            6.2785     3.1160    -2.3339 C.ar    
  19 C19            6.1019     1.7986    -1.8652 C.ar    
  20 N20            7.1392     1.0420    -1.5375 N.ar    
  21 C21            8.3799     1.4870    -1.6357 C.ar    
  22 C22           11.5857     0.1683    -0.9902 C.2     
  23 C23           10.8044    -0.9239    -0.6341 C.2     
  24 N24            9.5411    -0.6162    -0.8055 N.2     
  25 C25            5.1057     3.9478    -2.6950 C.ar    
  26 C26            4.9803     5.2393    -2.1853 C.ar    
  27 C27            3.8864     6.0090    -2.5249 C.ar    
  28 C28            2.9151     5.5011    -3.3688 C.ar    
  29 C29            3.0342     4.2203    -3.8776 C.ar    
  30 C30            4.1269     3.4437    -3.5500 C.ar    
  31 C31           11.3237    -2.2448    -0.1274 C.3     
  32 H32            1.0872    -1.6591     1.2017 H       
  33 H33            1.8693    -0.0763     1.4286 H       
  34 H34            0.3506    -0.4487     2.2790 H       
  35 H35            0.5214    -0.8648    -2.0653 H       
  36 H36            3.0324    -1.6516    -2.0769 H       
  37 H37            5.3066    -0.7458    -2.2929 H       
  38 H38            3.8634     3.1282    -1.1507 H       
  39 H39            1.5906     2.2160    -0.9462 H       
  40 H40           10.2517     4.2431    -2.5379 H       
  41 H41            7.7367     4.6314    -2.8080 H       
  42 H42           12.6638     0.2194    -0.9527 H       
  43 H43            5.7377     5.6365    -1.5258 H       
  44 H44            3.7882     7.0097    -2.1306 H       
  45 H45            2.0603     6.1069    -3.6312 H       
  46 H46            2.2726     3.8289    -4.5358 H       
  47 H47            4.2212     2.4456    -3.9516 H       
  48 H48           11.3987    -2.2129     0.9595 H       
  49 H49           10.6395    -3.0409    -0.4211 H       
  50 H50           12.3083    -2.4360    -0.5542 H       
@<TRIPOS>BOND
   1    1    2 1
   2    1   32 1
   3    1   33 1
   4    1   34 1
   5    2    3 2
   6    2    4 2
   7    2    5 am
   8    5    6 1
   9    5   35 1
  10    6    7 ar
  11    6   11 ar
  12    7    8 ar
  13    7   36 1
  14    8    9 ar
  15    8   37 1
  16    9   10 ar
  17    9   19 1
  18   10   11 ar
  19   10   38 1
  20   11   39 1
  21   12   13 1
  22   12   21 1
  23   12   24 1
  24   13   14 1
  25   13   22 2
  26   14   15 2
  27   15   16 1
  28   15   40 1
  29   16   17 ar
  30   16   21 ar
  31   17   18 ar
  32   17   41 1
  33   18   19 ar
  34   18   25 1
  35   19   20 ar
  36   20   21 ar
  37   22   23 1
  38   22   42 1
  39   23   24 2
  40   23   31 1
  41   25   26 ar
  42   25   30 ar
  43   26   27 ar
  44   26   43 1
  45   27   28 ar
  46   27   44 1
  47   28   29 ar
  48   28   45 1
  49   29   30 ar
  50   29   46 1
  51   30   47 1
  52   31   48 1
  53   31   49 1
  54   31   50 1

#	End of record

