#	Name: ASD09116043
#	Creating user name:	WinNT
#	Creation time:	15. 06. 2019 21:20

#	Modifying user name:	WinNT
#	Modification time:	15. 06. 2019 21:20

#	Program:	/corina/corina34_cracker 3.40 0067  02.08.2006

@<TRIPOS>MOLECULE
ASD09116043
  27   28    0    0    0
SMALL
NO_CHARGES


@<TRIPOS>ATOM
   1 C1            -0.0165     1.3691     0.0096 C.ar    
   2 C2             0.0021    -0.0041     0.0020 C.ar    
   3 C3            -1.2949    -0.7838     0.0085 C.3     
   4 C4            -1.9705    -0.6069    -1.3546 C.3     
   5 C5            -2.8043     0.6581    -1.3861 C.3     
   6 C6            -2.0033     1.9437    -1.3371 C.3     
   7 C7            -1.3312     2.1168     0.0324 C.3     
   8 C8             1.1822     2.0617     0.0018 C.ar    
   9 N9             2.3122     1.3697    -0.0117 N.ar    
  10 C10            2.2970     0.0450    -0.0180 C.ar    
  11 N11            1.1613    -0.6410    -0.0114 N.ar    
  12 N12            3.4985    -0.6419    -0.0319 N.pl3   
  13 N13            4.6786     0.0460    -0.0389 N.3     
  14 H14           -1.0877    -1.8398     0.1815 H       
  15 H15           -1.9480    -0.4037     0.7941 H       
  16 H16           -1.2054    -0.5509    -2.1290 H       
  17 H17           -2.6139    -1.4649    -1.5495 H       
  18 H18           -3.3990     0.6567    -2.2996 H       
  19 H19           -3.4857     0.6435    -0.5354 H       
  20 H20           -1.2378     1.9187    -2.1127 H       
  21 H21           -2.6688     2.7876    -1.5186 H       
  22 H22           -1.9753     1.7095     0.8118 H       
  23 H23           -1.1492     3.1748     0.2212 H       
  24 H24            1.1960     3.1416     0.0064 H       
  25 H25            3.5025    -1.6119    -0.0366 H       
  26 H26            4.7328     0.6788     0.7452 H       
  27 H27            5.4653    -0.5857    -0.0488 H       
@<TRIPOS>BOND
   1    1    2 ar
   2    1    8 ar
   3    1    7 1
   4    2    3 1
   5    2   11 ar
   6    3    4 1
   7    3   14 1
   8    3   15 1
   9    4    5 1
  10    4   16 1
  11    4   17 1
  12    5    6 1
  13    5   18 1
  14    5   19 1
  15    6    7 1
  16    6   20 1
  17    6   21 1
  18    7   22 1
  19    7   23 1
  20    8    9 ar
  21    8   24 1
  22    9   10 ar
  23   10   11 ar
  24   10   12 1
  25   12   13 1
  26   12   25 1
  27   13   26 1
  28   13   27 1

#	End of record

