#	Name: ASD00069017
#	Creating user name:	WinNT
#	Creation time:	15. 06. 2019 18:29

#	Modifying user name:	WinNT
#	Modification time:	15. 06. 2019 18:29

#	Program:	/corina/corina34_cracker 3.40 0067  02.08.2006

@<TRIPOS>MOLECULE
ASD00069017
  44   48    0    0    0
SMALL
NO_CHARGES


@<TRIPOS>ATOM
   1 C1            -0.0255     1.3999    -0.0122 C.ar    
   2 C2            -0.0058     0.0056    -0.0099 C.ar    
   3 C3             1.1970    -0.6744    -0.0132 C.ar    
   4 C4             2.3934     0.0452    -0.0188 C.ar    
   5 C5             2.3637     1.4514    -0.0211 C.ar    
   6 C6             1.1384     2.1137    -0.0177 C.ar    
   7 C7             3.8107    -0.3377    -0.0234 C.2     
   8 N8             4.5189     0.7683    -0.0279 N.2     
   9 N9             3.6690     1.8787    -0.0267 N.pl3   
  10 C10            4.3426    -1.7146    -0.0226 C.2     
  11 N11            3.6138    -2.8053    -0.0180 N.2     
  12 C12            4.4221    -3.8931    -0.0195 C.ar    
  13 C13            5.7483    -3.4257    -0.0254 C.ar    
  14 N14            5.6715    -2.0461    -0.0324 N.pl3   
  15 C15            4.1789    -5.2706    -0.0164 C.ar    
  16 C16            5.2268    -6.1468    -0.0191 C.ar    
  17 C17            6.5355    -5.6854    -0.0249 C.ar    
  18 C18            6.7996    -4.3317    -0.0281 C.ar    
  19 N19           -1.2110    -0.7089    -0.0038 N.am    
  20 C20           -1.3047    -1.8779    -0.6680 C.2     
  21 O21           -0.3762    -2.2652    -1.3511 O.2     
  22 N22           -2.4275    -2.6175    -0.5753 N.am    
  23 C23           -2.5731    -3.7718    -1.3573 C.ar    
  24 C24           -1.8722    -3.8972    -2.5485 C.ar    
  25 C25           -3.4155    -4.7952    -0.9379 C.ar    
  26 C26           -3.5570    -5.9328    -1.7117 C.ar    
  27 C27           -2.8601    -6.0520    -2.9021 C.ar    
  28 C28           -2.0168    -5.0354    -3.3180 C.ar    
  29 F29           -2.9988    -7.1642    -3.6563 F       
  30 F30           -4.0946    -4.6788     0.2242 F       
  31 H31           -0.9716     1.9208    -0.0142 H       
  32 H32            1.2116    -1.7543    -0.0110 H       
  33 H33            1.1090     3.1933    -0.0198 H       
  34 H34            3.9561     2.8052    -0.0296 H       
  35 H35            6.4190    -1.4279    -0.0376 H       
  36 H36            3.1643    -5.6407    -0.0114 H       
  37 H37            5.0348    -7.2096    -0.0163 H       
  38 H38            7.3530    -6.3912    -0.0271 H       
  39 H39            7.8201    -3.9783    -0.0323 H       
  40 H40           -1.9779    -0.3623     0.4785 H       
  41 H41           -3.1349    -2.3512     0.0327 H       
  42 H42           -1.2142    -3.1051    -2.8740 H       
  43 H43           -4.2111    -6.7286    -1.3870 H       
  44 H44           -1.4746    -5.1307    -4.2471 H       
@<TRIPOS>BOND
   1    1    2 ar
   2    1    6 ar
   3    1   31 1
   4    2    3 ar
   5    2   19 1
   6    3    4 ar
   7    3   32 1
   8    4    5 ar
   9    4    7 1
  10    5    6 ar
  11    5    9 1
  12    6   33 1
  13    7    8 2
  14    7   10 1
  15    8    9 1
  16    9   34 1
  17   10   11 2
  18   10   14 1
  19   11   12 1
  20   12   13 ar
  21   12   15 ar
  22   13   14 1
  23   13   18 ar
  24   14   35 1
  25   15   16 ar
  26   15   36 1
  27   16   17 ar
  28   16   37 1
  29   17   18 ar
  30   17   38 1
  31   18   39 1
  32   19   20 am
  33   19   40 1
  34   20   21 2
  35   20   22 am
  36   22   23 1
  37   22   41 1
  38   23   24 ar
  39   23   25 ar
  40   24   28 ar
  41   24   42 1
  42   25   26 ar
  43   25   30 1
  44   26   27 ar
  45   26   43 1
  46   27   28 ar
  47   27   29 1
  48   28   44 1

#	End of record

