#	Name: ASD07300901
#	Creating user name:	WinNT
#	Creation time:	15. 06. 2019 21:10

#	Modifying user name:	WinNT
#	Modification time:	15. 06. 2019 21:10

#	Program:	/corina/corina34_cracker 3.40 0067  02.08.2006

@<TRIPOS>MOLECULE
ASD07300901
  48   52    0    0    0
SMALL
NO_CHARGES


@<TRIPOS>ATOM
   1 N1             0.4545     1.2963    -0.5040 N.am    
   2 C2             0.3318    -0.0354    -0.2745 C.2     
   3 N3             1.3494    -0.8451    -0.2342 N.2     
   4 C4             2.6062    -0.4134    -0.4198 C.2     
   5 C5             2.8326     0.9505    -0.6645 C.2     
   6 C6             1.6757     1.8445    -0.7054 C.2     
   7 N7             3.8258    -1.0175    -0.4317 N.pl3   
   8 N8             4.7975    -0.0400    -0.6809 N.2     
   9 C9             4.2210     1.1225    -0.8194 C.2     
  10 O10            1.8062     3.0378    -0.9137 O.2     
  11 C11            4.0677    -2.3823    -0.2288 C.ar    
  12 C12            3.3235    -3.3380    -0.9071 C.ar    
  13 N13            3.5478    -4.6232    -0.7185 N.ar    
  14 C14            4.4780    -5.0515     0.1122 C.ar    
  15 C15            5.2600    -4.1604     0.8238 C.ar    
  16 C16            5.0624    -2.8003     0.6521 C.ar    
  17 C17           -1.0470    -0.6028    -0.0555 C.3     
  18 C18           -1.0678    -2.1341     0.0852 C.3     
  19 C19           -2.1154    -1.9393     1.1940 C.3     
  20 C20           -1.5134    -0.5406     1.4086 C.3     
  21 C21           -0.3808    -0.5169     2.4024 C.2     
  22 N22           -0.2963     0.2691     3.4376 N.2     
  23 C23            0.8497     0.0027     4.0889 C.2     
  24 C24            1.4787    -0.9793     3.4222 C.2     
  25 O25            0.7022    -1.3048     2.3701 O.3     
  26 C26            1.3403     0.6837     5.3405 C.3     
  27 C27            2.8015    -1.6033     3.7855 C.3     
  28 C28            5.8943    -1.7976     1.4093 C.3     
  29 H29           -0.3366     1.8572    -0.5279 H       
  30 H30            4.7236     2.0573    -1.0194 H       
  31 H31            2.5527    -3.0254    -1.5960 H       
  32 H32            4.6309    -6.1131     0.2389 H       
  33 H33            6.0192    -4.5207     1.5021 H       
  34 H34           -1.7800    -0.2196    -0.7653 H       
  35 H35           -1.4539    -2.6482    -0.7949 H       
  36 H36           -0.1268    -2.5525     0.4423 H       
  37 H37           -3.1416    -1.9213     0.8268 H       
  38 H38           -1.9807    -2.6078     2.0443 H       
  39 H39           -2.2592     0.2316     1.5968 H       
  40 H40            1.0459     0.0987     6.2117 H       
  41 H41            2.4268     0.7651     5.3078 H       
  42 H42            0.9032     1.6800     5.4072 H       
  43 H43            2.6403    -2.3994     4.5124 H       
  44 H44            3.2661    -2.0171     2.8905 H       
  45 H45            3.4549    -0.8447     4.2165 H       
  46 H46            6.7336    -1.4805     0.7904 H       
  47 H47            5.2809    -0.9323     1.6606 H       
  48 H48            6.2702    -2.2546     2.3247 H       
@<TRIPOS>BOND
   1    1    2 1
   2    1    6 am
   3    1   29 1
   4    2    3 2
   5    2   17 1
   6    3    4 1
   7    4    5 2
   8    4    7 1
   9    5    6 1
  10    5    9 1
  11    6   10 2
  12    7    8 1
  13    7   11 1
  14    8    9 2
  15    9   30 1
  16   11   12 ar
  17   11   16 ar
  18   12   13 ar
  19   12   31 1
  20   13   14 ar
  21   14   15 ar
  22   14   32 1
  23   15   16 ar
  24   15   33 1
  25   16   28 1
  26   17   18 1
  27   17   20 1
  28   17   34 1
  29   18   19 1
  30   18   35 1
  31   18   36 1
  32   19   20 1
  33   19   37 1
  34   19   38 1
  35   20   21 1
  36   20   39 1
  37   21   22 2
  38   21   25 1
  39   22   23 1
  40   23   24 2
  41   23   26 1
  42   24   25 1
  43   24   27 1
  44   26   40 1
  45   26   41 1
  46   26   42 1
  47   27   43 1
  48   27   44 1
  49   27   45 1
  50   28   46 1
  51   28   47 1
  52   28   48 1

#	End of record

