#	Name: ASD01811168
#	Creating user name:	WinNT
#	Creation time:	15. 06. 2019 19:26

#	Modifying user name:	WinNT
#	Modification time:	15. 06. 2019 19:26

#	Program:	/corina/corina34_cracker 3.40 0067  02.08.2006

@<TRIPOS>MOLECULE
ASD01811168
  62   65    0    0    0
SMALL
NO_CHARGES


@<TRIPOS>ATOM
   1 C1             0.2618     1.4650    -0.4723 C.2     
   2 C2             0.2158    -0.0050    -0.3201 C.ar    
   3 C3             1.3709    -0.7657    -0.5177 C.ar    
   4 C4             1.3296    -2.1384    -0.3765 C.ar    
   5 C5             0.1481    -2.7688    -0.0390 C.ar    
   6 C6            -1.0139    -2.0203     0.1613 C.ar    
   7 C7            -0.9778    -0.6340     0.0260 C.ar    
   8 O8             1.2616     2.0781    -0.1530 O.2     
   9 N9            -0.8029     2.1245    -0.9702 N.am    
  10 N10           -0.7605     3.4826    -1.1108 N.3     
  11 C11            0.1125    -4.2677     0.1130 C.3     
  12 C12           -0.2821    -4.9062    -1.2203 C.3     
  13 C13            2.6646    -0.0864    -0.8862 C.3     
  14 C14            3.7542    -0.2101     0.1919 C.3     
  15 C15            4.7558    -0.4193    -0.9561 C.3     
  16 C16            3.5721    -0.9381    -1.7894 C.3     
  17 C17           -2.2781    -2.6969     0.5221 C.2     
  18 O18           -2.7255    -3.5710    -0.1943 O.2     
  19 N19           -2.9344    -2.3445     1.6453 N.am    
  20 C20           -4.1403    -3.0704     2.0667 C.3     
  21 C21           -3.9531    -3.5398     3.5129 C.3     
  22 C22           -3.6027    -2.3383     4.3937 C.3     
  23 C23           -2.2889    -1.7174     3.9134 C.3     
  24 C24           -2.4540    -1.2310     2.4748 C.3     
  25 F25           -4.6250    -1.3867     4.3122 F       
  26 C26           -3.4511    -2.7908     5.8231 C.ar    
  27 C27           -3.4439    -1.8569     6.8440 C.ar    
  28 C28           -3.3055    -2.2642     8.1547 C.ar    
  29 C29           -3.1731    -3.6225     8.4500 C.ar    
  30 C30           -3.1818    -4.5596     7.4148 C.ar    
  31 C31           -3.3257    -4.1387     6.1090 C.ar    
  32 C32           -3.0287    -4.0525     9.8082 C.1     
  33 N33           -2.9141    -4.3936    10.8857 N.1     
  34 H34            2.2251    -2.7219    -0.5310 H       
  35 H35           -1.8725    -0.0501     0.1842 H       
  36 H36           -1.5993     1.6348    -1.2287 H       
  37 H37           -1.6255     3.8337    -1.4939 H       
  38 H38           -0.5459     3.9305    -0.2325 H       
  39 H39            1.0980    -4.6263     0.4100 H       
  40 H40           -0.6177    -4.5383     0.8756 H       
  41 H41           -0.3079    -5.9904    -1.1103 H       
  42 H42           -1.2676    -4.5476    -1.5173 H       
  43 H43            0.4481    -4.6356    -1.9829 H       
  44 H44            2.5202     0.9323    -1.2461 H       
  45 H45            3.9194     0.7094     0.7534 H       
  46 H46            3.6366    -1.0836     0.8333 H       
  47 H47            5.1842     0.5082    -1.3362 H       
  48 H48            5.5083    -1.1794    -0.7460 H       
  49 H49            3.4047    -2.0105    -1.6897 H       
  50 H50            3.5902    -0.6062    -2.8275 H       
  51 H51           -5.0047    -2.4091     2.0062 H       
  52 H52           -4.2921    -3.9338     1.4191 H       
  53 H53           -4.8766    -3.9955     3.8699 H       
  54 H54           -3.1456    -4.2706     3.5565 H       
  55 H55           -2.0279    -0.8762     4.5555 H       
  56 H56           -1.4971    -2.4654     3.9533 H       
  57 H57           -1.4936    -0.8812     2.0963 H       
  58 H58           -3.1781    -0.4167     2.4482 H       
  59 H59           -3.5464    -0.8067     6.6141 H       
  60 H60           -3.2993    -1.5342     8.9505 H       
  61 H61           -3.0798    -5.6117     7.6363 H       
  62 H62           -3.3366    -4.8628     5.3077 H       
@<TRIPOS>BOND
   1    1    2 1
   2    1    8 2
   3    1    9 am
   4    2    3 ar
   5    2    7 ar
   6    3    4 ar
   7    3   13 1
   8    4    5 ar
   9    4   34 1
  10    5    6 ar
  11    5   11 1
  12    6    7 ar
  13    6   17 1
  14    7   35 1
  15    9   10 1
  16    9   36 1
  17   10   37 1
  18   10   38 1
  19   11   12 1
  20   11   39 1
  21   11   40 1
  22   12   41 1
  23   12   42 1
  24   12   43 1
  25   13   14 1
  26   13   16 1
  27   13   44 1
  28   14   15 1
  29   14   45 1
  30   14   46 1
  31   15   16 1
  32   15   47 1
  33   15   48 1
  34   16   49 1
  35   16   50 1
  36   17   18 2
  37   17   19 am
  38   19   20 1
  39   19   24 1
  40   20   21 1
  41   20   51 1
  42   20   52 1
  43   21   22 1
  44   21   53 1
  45   21   54 1
  46   22   23 1
  47   22   25 1
  48   22   26 1
  49   23   24 1
  50   23   55 1
  51   23   56 1
  52   24   57 1
  53   24   58 1
  54   26   27 ar
  55   26   31 ar
  56   27   28 ar
  57   27   59 1
  58   28   29 ar
  59   28   60 1
  60   29   30 ar
  61   29   32 1
  62   30   31 ar
  63   30   61 1
  64   31   62 1
  65   32   33 3

#	End of record

