#	Name: ASD01812412
#	Creating user name:	WinNT
#	Creation time:	15. 06. 2019 19:28

#	Modifying user name:	WinNT
#	Modification time:	15. 06. 2019 19:28

#	Program:	/corina/corina34_cracker 3.40 0067  02.08.2006

@<TRIPOS>MOLECULE
ASD01812412
  70   74    0    0    0
SMALL
NO_CHARGES


@<TRIPOS>ATOM
   1 O1            -4.8737    -2.7146     1.2096 O.3     
   2 C2            -4.4167    -1.6032     1.9829 C.3     
   3 H3            -5.2703    -0.9999     2.2919 H       
   4 C4            -3.6776    -2.1133     3.2217 C.3     
   5 C5            -3.1883    -0.9234     4.0497 C.3     
   6 C6            -2.2397    -0.0702     3.2052 C.3     
   7 C7            -2.9787     0.4400     1.9665 C.3     
   8 C8            -3.4681    -0.7500     1.1385 C.3     
   9 H9            -2.6144    -1.3532     0.8295 H       
  10 N10           -4.1757    -0.2615    -0.0476 N.am    
  11 C11           -3.4850     0.0621    -1.1588 C.2     
  12 O12           -2.2682     0.0384    -1.1474 O.2     
  13 C13           -4.1996     0.4428    -2.3815 C.2     
  14 C14           -5.6027     0.3642    -2.4365 C.2     
  15 C15           -6.2459     0.7244    -3.5855 C.2     
  16 C16           -7.7489     0.6474    -3.6635 C.3     
  17 N17           -8.1508    -0.7164    -4.0327 N.3     
  18 C18           -7.3394    -1.2204    -5.1481 C.3     
  19 C19           -7.6844    -2.6883    -5.4091 C.3     
  20 C20           -9.1741    -2.8058    -5.7433 C.3     
  21 C21           -9.9956    -2.2299    -4.5866 C.3     
  22 C22           -9.5835    -0.7752    -4.3493 C.3     
  23 C23           -9.4629    -2.0526    -6.9746 C.1     
  24 N24           -9.6858    -1.4713    -7.9248 N.1     
  25 C25           -9.5327    -4.2559    -5.9426 C.ar    
  26 C26          -10.8612    -4.6360    -5.9501 C.ar    
  27 C27          -11.1805    -5.9728    -6.1348 C.ar    
  28 C28          -10.1468    -6.8805    -6.3057 C.ar    
  29 C29           -8.8414    -6.4263    -6.2864 C.ar    
  30 N30           -8.5752    -5.1466    -6.1133 N.ar    
  31 C31          -12.6171    -6.4279    -6.1489 C.3     
  32 F32          -12.6950    -7.7408    -5.6719 F       
  33 F33          -13.3803    -5.5883    -5.3305 F       
  34 C34           -5.5085     1.1663    -4.6926 C.2     
  35 C35           -6.1799     1.5349    -5.8705 C.2     
  36 C36           -5.4596     1.9646    -6.9462 C.2     
  37 C37           -4.0624     2.0313    -6.8589 C.2     
  38 C38           -3.4339     1.6724    -5.7168 C.2     
  39 N39           -4.1432     1.2418    -4.6349 N.am    
  40 C40           -3.4866     0.8960    -3.5092 C.2     
  41 O41           -2.2701     0.9716    -3.4684 O.2     
  42 H42           -5.4805    -3.3001     1.6830 H       
  43 H43           -4.3534    -2.7212     3.8233 H       
  44 H44           -2.8240    -2.7166     2.9127 H       
  45 H45           -4.0419    -0.3201     4.3586 H       
  46 H46           -2.6618    -1.2868     4.9322 H       
  47 H47           -1.8911     0.7776     3.7951 H       
  48 H48           -1.3861    -0.6734     2.8963 H       
  49 H49           -3.8324     1.0432     2.2754 H       
  50 H50           -2.3030     1.0478     1.3649 H       
  51 H51           -5.1414    -0.1710    -0.0333 H       
  52 H52           -6.1647     0.0224    -1.5800 H       
  53 H53           -8.1765     0.9023    -2.6938 H       
  54 H54           -8.1101     1.3489    -4.4155 H       
  55 H55           -7.5476    -0.6337    -6.0428 H       
  56 H56           -6.2824    -1.1351    -4.8958 H       
  57 H57           -7.0933    -3.0576    -6.2471 H       
  58 H58           -7.4635    -3.2779    -4.5193 H       
  59 H59          -11.0556    -2.2717    -4.8369 H       
  60 H60           -9.8110    -2.8122    -3.6838 H       
  61 H61          -10.1565    -0.3666    -3.5170 H       
  62 H62           -9.7812    -0.1906    -5.2478 H       
  63 H63          -11.6410    -3.9014    -5.8136 H       
  64 H64          -10.3587    -7.9295    -6.4516 H       
  65 H65           -8.0304    -7.1272    -6.4185 H       
  66 H66          -13.0007    -6.3884    -7.1683 H       
  67 H67           -7.2571     1.4782    -5.9238 H       
  68 H68           -5.9621     2.2508    -7.8584 H       
  69 H69           -3.4857     2.3701    -7.7068 H       
  70 H70           -2.3567     1.7274    -5.6609 H       
@<TRIPOS>BOND
   1    1    2 1
   2    1   42 1
   3    2    3 1
   4    2    8 1
   5    2    4 1
   6    4    5 1
   7    4   43 1
   8    4   44 1
   9    5    6 1
  10    5   45 1
  11    5   46 1
  12    6    7 1
  13    6   47 1
  14    6   48 1
  15    7    8 1
  16    7   49 1
  17    7   50 1
  18    8    9 1
  19    8   10 1
  20   10   11 am
  21   10   51 1
  22   11   12 2
  23   11   13 1
  24   13   40 1
  25   13   14 2
  26   14   15 1
  27   14   52 1
  28   15   16 1
  29   15   34 2
  30   16   17 1
  31   16   53 1
  32   16   54 1
  33   17   22 1
  34   17   18 1
  35   18   19 1
  36   18   55 1
  37   18   56 1
  38   19   20 1
  39   19   57 1
  40   19   58 1
  41   20   21 1
  42   20   23 1
  43   20   25 1
  44   21   22 1
  45   21   59 1
  46   21   60 1
  47   22   61 1
  48   22   62 1
  49   23   24 3
  50   25   30 ar
  51   25   26 ar
  52   26   27 ar
  53   26   63 1
  54   27   28 ar
  55   27   31 1
  56   28   29 ar
  57   28   64 1
  58   29   30 ar
  59   29   65 1
  60   31   32 1
  61   31   33 1
  62   31   66 1
  63   34   39 1
  64   34   35 1
  65   35   36 2
  66   35   67 1
  67   36   37 1
  68   36   68 1
  69   37   38 2
  70   37   69 1
  71   38   39 1
  72   38   70 1
  73   39   40 am
  74   40   41 2

#	End of record

