#	Name: ASD01412036
#	Creating user name:	WinNT
#	Creation time:	15. 06. 2019 19:19

#	Modifying user name:	WinNT
#	Modification time:	15. 06. 2019 19:19

#	Program:	/corina/corina34_cracker 3.40 0067  02.08.2006

@<TRIPOS>MOLECULE
ASD01412036
  82   86    0    0    0
SMALL
NO_CHARGES


@<TRIPOS>ATOM
   1 C1            -1.5173     2.3960     2.7066 C.ar    
   2 C2            -1.3026     1.0593     2.3141 C.ar    
   3 C3            -2.3910     0.2537     1.9491 C.ar    
   4 C4            -3.6532     0.7623     1.9736 C.ar    
   5 C5            -3.8764     2.0913     2.3624 C.ar    
   6 C6            -2.8076     2.9036     2.7337 C.ar    
   7 N7            -0.2848     2.9379     3.0048 N.pl3   
   8 C8             0.6805     1.9780     2.8084 C.2     
   9 C9             0.0923     0.8290     2.3895 C.2     
  10 C10            0.7980    -0.4620     2.0634 C.3     
  11 C11            0.2782    -1.5726     2.9784 C.3     
  12 C12            0.9946    -2.8833     2.6472 C.3     
  13 C13            0.7258    -3.2570     1.1881 C.3     
  14 C14            1.2457    -2.1463     0.2732 C.3     
  15 C15            0.5292    -0.8356     0.6043 C.3     
  16 C16           -5.2504     2.6298     2.3833 C.2     
  17 O17           -5.4470     3.7815     2.7199 O.2     
  18 N18           -6.2873     1.8449     2.0293 N.am    
  19 C19           -7.6511     2.3794     2.0501 C.3     
  20 C20           -8.6173     1.3079     1.6146 C.2     
  21 C21           -7.9992     2.8339     3.4689 C.3     
  22 C22           -7.7465     3.5708     1.0950 C.3     
  23 C23           -9.1277    -0.6086     0.3079 C.ar    
  24 O24           -9.7215     1.2483     2.1126 O.2     
  25 C25          -10.4969    -0.3657     0.2519 C.ar    
  26 C26          -11.3621    -1.3722    -0.1117 C.ar    
  27 C27          -10.8629    -2.6420    -0.4261 C.ar    
  28 C28           -9.4846    -2.8816    -0.3689 C.ar    
  29 C29           -8.6270    -1.8692    -0.0038 C.ar    
  30 C30          -11.7828    -3.7200    -0.8144 C.2     
  31 C31          -12.8321    -3.4542    -1.6229 C.2     
  32 N32           -8.2542     0.4159     0.6718 N.am    
  33 C33           -0.0432     4.3106     3.4562 C.3     
  34 C34            2.1311     2.1682     3.0204 C.ar    
  35 N35            2.9999     1.4733     2.2927 N.ar    
  36 C36            4.3034     1.6152     2.4520 C.ar    
  37 C37            4.8127     2.5029     3.3932 C.ar    
  38 C38            3.9379     3.2445     4.1701 C.ar    
  39 C39            2.5759     3.0786     3.9773 C.ar    
  40 O40            5.1554     0.8859     1.6886 O.3     
  41 C41            4.5720    -0.0092     0.7397 C.3     
  42 C42          -12.8528    -2.2609    -2.3882 C.2     
  43 O43          -11.8617    -1.5578    -2.4457 O.2     
  44 O44          -13.9719    -1.9050    -3.0529 O.3     
  45 H45           -2.2275    -0.7705     1.6482 H       
  46 H46           -4.4884     0.1385     1.6914 H       
  47 H47           -2.9819     3.9267     3.0327 H       
  48 H48            1.8703    -0.3383     2.2152 H       
  49 H49            0.4697    -1.3064     4.0179 H       
  50 H50           -0.7941    -1.6963     2.8266 H       
  51 H51            2.0669    -2.7596     2.7990 H       
  52 H52            0.6243    -3.6745     3.2991 H       
  53 H53            1.2363    -4.1907     0.9522 H       
  54 H54           -0.3464    -3.3806     1.0363 H       
  55 H55            2.3179    -2.0226     0.4249 H       
  56 H56            1.0542    -2.4125    -0.7664 H       
  57 H57           -0.5431    -0.9593     0.4525 H       
  58 H58            0.8995    -0.0444    -0.0476 H       
  59 H59           -6.1305     0.9260     1.7608 H       
  60 H60           -7.3004     3.6089     3.7838 H       
  61 H61           -9.0139     3.2316     3.4843 H       
  62 H62           -7.9312     1.9851     4.1493 H       
  63 H63           -7.4986     3.2470     0.0842 H       
  64 H64           -8.7613     3.9685     1.1104 H       
  65 H65           -7.0477     4.3458     1.4099 H       
  66 H66          -10.8811     0.6140     0.4946 H       
  67 H67          -12.4246    -1.1830    -0.1541 H       
  68 H68           -9.0952    -3.8596    -0.6102 H       
  69 H69           -7.5637    -2.0530     0.0403 H       
  70 H70          -11.6202    -4.7248    -0.4535 H       
  71 H71          -13.6550    -4.1507    -1.6863 H       
  72 H72           -7.3854     0.4865     0.2463 H       
  73 H73           -0.0746     4.3458     4.5452 H       
  74 H74            0.9366     4.6397     3.1101 H       
  75 H75           -0.8119     4.9675     3.0491 H       
  76 H76            5.8798     2.6129     3.5176 H       
  77 H77            4.3097     3.9401     4.9079 H       
  78 H78            1.8677     3.6419     4.5669 H       
  79 H79            3.9501    -0.7368     1.2613 H       
  80 H80            3.9590     0.5552     0.0370 H       
  81 H81            5.3617    -0.5288     0.1971 H       
  82 H82          -13.8900    -1.0772    -3.5460 H       
@<TRIPOS>BOND
   1    1    2 ar
   2    1    7 1
   3    1    6 ar
   4    2    3 ar
   5    2    9 1
   6    3    4 ar
   7    3   45 1
   8    4    5 ar
   9    4   46 1
  10    5    6 ar
  11    5   16 1
  12    6   47 1
  13    7    8 1
  14    7   33 1
  15    8    9 2
  16    8   34 1
  17    9   10 1
  18   10   11 1
  19   10   15 1
  20   10   48 1
  21   11   12 1
  22   11   49 1
  23   11   50 1
  24   12   13 1
  25   12   51 1
  26   12   52 1
  27   13   14 1
  28   13   53 1
  29   13   54 1
  30   14   15 1
  31   14   55 1
  32   14   56 1
  33   15   57 1
  34   15   58 1
  35   16   17 2
  36   16   18 am
  37   18   19 1
  38   18   59 1
  39   19   20 1
  40   19   21 1
  41   19   22 1
  42   20   24 2
  43   20   32 am
  44   21   60 1
  45   21   61 1
  46   21   62 1
  47   22   63 1
  48   22   64 1
  49   22   65 1
  50   23   25 ar
  51   23   29 ar
  52   23   32 1
  53   25   26 ar
  54   25   66 1
  55   26   27 ar
  56   26   67 1
  57   27   28 ar
  58   27   30 1
  59   28   29 ar
  60   28   68 1
  61   29   69 1
  62   30   31 2
  63   30   70 1
  64   31   42 1
  65   31   71 1
  66   32   72 1
  67   33   73 1
  68   33   74 1
  69   33   75 1
  70   34   35 ar
  71   34   39 ar
  72   35   36 ar
  73   36   37 ar
  74   36   40 1
  75   37   38 ar
  76   37   76 1
  77   38   39 ar
  78   38   77 1
  79   39   78 1
  80   40   41 1
  81   41   79 1
  82   41   80 1
  83   41   81 1
  84   42   43 2
  85   42   44 1
  86   44   82 1

#	End of record

