#	Name: ASD01911393
#	Creating user name:	WinNT
#	Creation time:	15. 06. 2019 19:57

#	Modifying user name:	WinNT
#	Modification time:	15. 06. 2019 19:57

#	Program:	/corina/corina34_cracker 3.40 0067  02.08.2006

@<TRIPOS>MOLECULE
ASD01911393
  41   43    0    0    0
SMALL
NO_CHARGES


@<TRIPOS>ATOM
   1 N1            -0.0070     1.4094    -0.0033 N.2     
   2 N2            -0.0070     0.0095    -0.0453 N.pl3   
   3 C3             1.2422     1.8244     0.0383 C.2     
   4 C4             2.0821     0.6978     0.0242 C.2     
   5 C5             1.2901    -0.4115    -0.0276 C.2     
   6 C6             1.7540    -1.8165    -0.0588 C.ar    
   7 C7             1.6866     3.2389     0.0904 C.ar    
   8 N8             2.9828     3.5189     0.1287 N.ar    
   9 C9            -1.1915    -0.8510    -0.0980 C.3     
  10 C10           -1.6293    -1.0157    -1.5306 C.2     
  11 O11           -2.7018    -1.7683    -1.8223 O.3     
  12 O12           -1.0149    -0.4704    -2.4166 O.2     
  13 C13           -3.0657    -1.8825    -3.2233 C.3     
  14 C14            0.9286    -2.8152    -0.5759 C.ar    
  15 C15            3.4210     4.7601     0.1750 C.ar    
  16 C16            2.5336     5.8273     0.1859 C.ar    
  17 C17            1.1652     5.5747     0.1468 C.ar    
  18 C18            0.7387     4.2599     0.0928 C.ar    
  19 O19            2.9955     7.1046     0.2348 O.3     
  20 C20            1.3668    -4.1233    -0.6023 C.ar    
  21 C21            2.6218    -4.4453    -0.1173 C.ar    
  22 C22            3.4448    -3.4595     0.3972 C.ar    
  23 C23            3.0206    -2.1468     0.4234 C.ar    
  24 C24            4.4131     7.2808     0.2733 C.3     
  25 F25            4.9307     6.6502     1.4098 F       
  26 F26            4.9843     6.7181    -0.8731 F       
  27 H27            3.1617     0.7084     0.0497 H       
  28 H28           -0.9505    -1.8271     0.3228 H       
  29 H29           -1.9971    -0.3958     0.4781 H       
  30 H30           -3.2849    -0.8926    -3.6236 H       
  31 H31           -2.2382    -2.3239    -3.7788 H       
  32 H32           -3.9470    -2.5166    -3.3193 H       
  33 H33           -0.0514    -2.5651    -0.9545 H       
  34 H34            4.4838     4.9497     0.2052 H       
  35 H35            0.4531     6.3866     0.1546 H       
  36 H36           -0.3156     4.0276     0.0609 H       
  37 H37            0.7286    -4.8974    -1.0020 H       
  38 H38            2.9603    -5.4706    -0.1401 H       
  39 H39            4.4234    -3.7172     0.7747 H       
  40 H40            3.6641    -1.3780     0.8249 H       
  41 H41            4.6460     8.3450     0.3104 H       
@<TRIPOS>BOND
   1    1    2 1
   2    1    3 2
   3    2    9 1
   4    2    5 1
   5    3    4 1
   6    3    7 1
   7    4    5 2
   8    4   27 1
   9    5    6 1
  10    6   14 ar
  11    6   23 ar
  12    7    8 ar
  13    7   18 ar
  14    8   15 ar
  15    9   10 1
  16    9   28 1
  17    9   29 1
  18   10   11 1
  19   10   12 2
  20   11   13 1
  21   13   30 1
  22   13   31 1
  23   13   32 1
  24   14   20 ar
  25   14   33 1
  26   15   16 ar
  27   15   34 1
  28   16   17 ar
  29   16   19 1
  30   17   18 ar
  31   17   35 1
  32   18   36 1
  33   19   24 1
  34   20   21 ar
  35   20   37 1
  36   21   22 ar
  37   21   38 1
  38   22   23 ar
  39   22   39 1
  40   23   40 1
  41   24   25 1
  42   24   26 1
  43   24   41 1

#	End of record

