#	Name: ASD01410774
#	Creating user name:	WinNT
#	Creation time:	15. 06. 2019 19:18

#	Modifying user name:	WinNT
#	Modification time:	15. 06. 2019 19:18

#	Program:	/corina/corina34_cracker 3.40 0067  02.08.2006

@<TRIPOS>MOLECULE
ASD01410774
  73   78    0    0    0
SMALL
NO_CHARGES


@<TRIPOS>ATOM
   1 C1            -0.1556     4.0119    -1.6164 C.3     
   2 C2             0.5422     0.2543    -1.2605 C.3     
   3 C3             0.2737     1.5808    -2.0063 C.3     
   4 N4             1.6161     2.0265    -2.4162 N.am    
   5 C5             2.3480     0.8160    -2.8213 C.3     
   6 C6             1.6994    -0.3690    -2.0780 C.3     
   7 O7             0.9572     0.5081     0.1076 O.3     
   8 C8             2.2296     0.6168    -4.3104 C.2     
   9 O9             1.5961     1.4056    -4.9792 O.2     
  10 N10            2.8277    -0.4379    -4.8988 N.am    
  11 C11            2.6197    -0.6958    -6.3258 C.3     
  12 C12            1.2173    -1.0832    -6.7186 C.2     
  13 N13            0.4858    -1.8759    -5.9105 N.am    
  14 O14            0.7469    -0.6817    -7.7619 O.2     
  15 S15           -1.0071    -2.4021    -6.3970 S.o2    
  16 C16           -0.6684    -3.4647    -7.8276 C.3     
  17 C17            3.4257     0.1425    -7.3201 C.3     
  18 C18            3.7728    -1.3326    -7.1041 C.3     
  19 C19           -1.8698    -4.0245    -8.5920 C.3     
  20 C20           -1.0167    -2.9166    -9.2130 C.3     
  21 O21           -1.4801    -3.1751    -5.3025 O.2     
  22 O22           -1.6805    -1.2186    -6.8033 O.2     
  23 C23            2.7464     0.5228    -8.6372 C.3     
  24 C24            3.6616     1.4565    -9.4320 C.3     
  25 C25            0.6395    -0.4242     1.0255 C.2     
  26 N26            0.9951    -0.2501     2.3138 N.am    
  27 O27            0.0321    -1.4225     0.6925 O.2     
  28 C28            1.7205     0.8952     2.8727 C.3     
  29 C29           -0.3578     2.5995    -1.0683 C.3     
  30 C30            1.3342     4.3546    -1.6399 C.3     
  31 C31            2.0885     3.2811    -2.3830 C.2     
  32 O32            3.1247     3.5528    -2.9516 O.2     
  33 C33            0.7253    -1.1668     3.4261 C.3     
  34 C34            1.3090    -0.5562     4.6751 C.ar    
  35 C35            1.8922     0.6521     4.3509 C.ar    
  36 C36            1.3323    -1.0057     5.9867 C.ar    
  37 C37            1.9422    -0.2455     6.9689 C.ar    
  38 C38            2.5288     0.9624     6.6413 C.ar    
  39 C39            2.5012     1.4119     5.3353 C.ar    
  40 F40            0.7587    -2.1865     6.3059 F       
  41 H41           -0.5557     4.0678    -2.6287 H       
  42 H42           -0.6810     4.7251    -0.9813 H       
  43 H43           -0.3392    -0.3865    -1.2828 H       
  44 H44           -0.3547     1.4076    -2.8799 H       
  45 H45            3.3972     0.9033    -2.5391 H       
  46 H46            2.4226    -0.8399    -1.4122 H       
  47 H47            1.3105    -1.0960    -2.7910 H       
  48 H48            3.3960    -1.0263    -4.3774 H       
  49 H49            0.8338    -2.1382    -5.0439 H       
  50 H50            0.2146    -4.0983    -7.7441 H       
  51 H51            4.1107     0.8859    -6.9124 H       
  52 H52            4.6863    -1.5595    -6.5546 H       
  53 H53            3.5171    -2.0316    -7.9005 H       
  54 H54           -1.7770    -5.0262    -9.0116 H       
  55 H55           -2.8637    -3.7543    -8.2352 H       
  56 H56           -1.4494    -1.9175    -9.2648 H       
  57 H57           -0.3627    -3.1894   -10.0412 H       
  58 H58            2.5524    -0.3780    -9.2194 H       
  59 H59            1.8045     1.0295    -8.4272 H       
  60 H60            3.8555     2.3574    -8.8499 H       
  61 H61            4.6035     0.9498    -9.6420 H       
  62 H62            3.1776     1.7274   -10.3704 H       
  63 H63            2.6972     0.9820     2.3967 H       
  64 H64            1.1480     1.8089     2.7126 H       
  65 H65            0.1071     2.5230    -0.0854 H       
  66 H66           -1.4249     2.3957    -0.9786 H       
  67 H67            1.4785     5.3122    -2.1402 H       
  68 H68            1.7079     4.4195    -0.6180 H       
  69 H69           -0.3503    -1.2958     3.5459 H       
  70 H70            1.1947    -2.1312     3.2322 H       
  71 H71            1.9596    -0.5954     7.9905 H       
  72 H72            3.0052     1.5567     7.4070 H       
  73 H73            2.9602     2.3557     5.0805 H       
@<TRIPOS>BOND
   1    1   29 1
   2    1   30 1
   3    1   41 1
   4    1   42 1
   5    2    3 1
   6    2    7 1
   7    2    6 1
   8    2   43 1
   9    3    4 1
  10    3   29 1
  11    3   44 1
  12    4    5 1
  13    4   31 am
  14    5    6 1
  15    5    8 1
  16    5   45 1
  17    6   46 1
  18    6   47 1
  19    7   25 1
  20    8    9 2
  21    8   10 am
  22   10   11 1
  23   10   48 1
  24   11   12 1
  25   11   17 1
  26   11   18 1
  27   12   13 am
  28   12   14 2
  29   13   15 am
  30   13   49 1
  31   15   16 1
  32   15   21 2
  33   15   22 2
  34   16   19 1
  35   16   20 1
  36   16   50 1
  37   17   18 1
  38   17   23 1
  39   17   51 1
  40   18   52 1
  41   18   53 1
  42   19   20 1
  43   19   54 1
  44   19   55 1
  45   20   56 1
  46   20   57 1
  47   23   24 1
  48   23   58 1
  49   23   59 1
  50   24   60 1
  51   24   61 1
  52   24   62 1
  53   25   26 am
  54   25   27 2
  55   26   33 1
  56   26   28 1
  57   28   35 1
  58   28   63 1
  59   28   64 1
  60   29   65 1
  61   29   66 1
  62   30   31 1
  63   30   67 1
  64   30   68 1
  65   31   32 2
  66   33   34 1
  67   33   69 1
  68   33   70 1
  69   34   35 ar
  70   34   36 ar
  71   35   39 ar
  72   36   37 ar
  73   36   40 1
  74   37   38 ar
  75   37   71 1
  76   38   39 ar
  77   38   72 1
  78   39   73 1

#	End of record

