#	Name: ASD05313110
#	Creating user name:	WinNT
#	Creation time:	15. 06. 2019 20:58

#	Modifying user name:	WinNT
#	Modification time:	15. 06. 2019 20:58

#	Program:	/corina/corina34_cracker 3.40 0067  02.08.2006

@<TRIPOS>MOLECULE
ASD05313110
  40   43    0    0    0
SMALL
NO_CHARGES


@<TRIPOS>ATOM
   1 C1            -0.0021     1.5188     0.0011 C.2     
   2 C2             0.0031     0.0087    -0.0124 C.3     
   3 N3             1.1236     2.2753     0.0104 N.pl3   
   4 N4             1.3910    -0.4144    -0.2783 N.am    
   5 C5             2.4759     0.2855     0.4264 C.3     
   6 C6             2.4905     1.7571    -0.0040 C.3     
   7 N7            -0.6110     3.5466     0.0282 N.2     
   8 N8            -1.0212     2.3249     0.0115 N.2     
   9 C9             0.7064     3.5714     0.0304 C.2     
  10 C10            1.5662     4.7746     0.0537 C.ar    
  11 C11            0.9908     6.0469     0.0727 C.ar    
  12 N12            2.8909     4.6488     0.0621 N.ar    
  13 N13            1.7629     7.1167     0.0939 N.ar    
  14 C14            3.0787     6.9851     0.0971 C.ar    
  15 C15            3.6538     5.7258     0.0833 C.ar    
  16 C16            1.6574    -1.4143    -1.1419 C.2     
  17 O17            2.8085    -1.6778    -1.4303 O.2     
  18 C18            0.5500    -2.1903    -1.7382 C.ar    
  19 C19            0.6491    -2.6585    -3.0500 C.ar    
  20 C20           -0.3873    -3.3819    -3.6009 C.ar    
  21 C21           -1.5253    -3.6445    -2.8557 C.ar    
  22 C22           -1.6295    -3.1824    -1.5543 C.ar    
  23 C23           -0.5967    -2.4630    -0.9903 C.ar    
  24 C24           -0.2822    -3.8875    -5.0166 C.3     
  25 F25            0.9474    -3.5002    -5.5601 F       
  26 F26           -0.3753    -5.2834    -5.0214 F       
  27 F27           -1.3212    -3.3483    -5.7827 F       
  28 Cl28          -2.8261    -4.5560    -3.5562 Cl      
  29 H29           -0.3234    -0.3730     0.9549 H       
  30 H30           -0.6551    -0.3585    -0.7998 H       
  31 H31            2.3115     0.2224     1.5021 H       
  32 H32            3.4306    -0.1767     0.1755 H       
  33 H33            2.9000     1.8379    -1.0109 H       
  34 H34            3.1055     2.3329     0.6876 H       
  35 H35           -0.0838     6.1550     0.0698 H       
  36 H36            3.7072     7.8633     0.1140 H       
  37 H37            4.7290     5.6243     0.0905 H       
  38 H38            1.5356    -2.4541    -3.6319 H       
  39 H39           -2.5193    -3.3896    -0.9785 H       
  40 H40           -0.6769    -2.1075     0.0263 H       
@<TRIPOS>BOND
   1    1    2 1
   2    1    3 1
   3    1    8 2
   4    2    4 1
   5    2   29 1
   6    2   30 1
   7    3    6 1
   8    3    9 1
   9    4    5 1
  10    4   16 am
  11    5    6 1
  12    5   31 1
  13    5   32 1
  14    6   33 1
  15    6   34 1
  16    7    8 1
  17    7    9 2
  18    9   10 1
  19   10   11 ar
  20   10   12 ar
  21   11   13 ar
  22   11   35 1
  23   12   15 ar
  24   13   14 ar
  25   14   15 ar
  26   14   36 1
  27   15   37 1
  28   16   17 2
  29   16   18 1
  30   18   19 ar
  31   18   23 ar
  32   19   20 ar
  33   19   38 1
  34   20   21 ar
  35   20   24 1
  36   21   22 ar
  37   21   28 1
  38   22   23 ar
  39   22   39 1
  40   23   40 1
  41   24   25 1
  42   24   26 1
  43   24   27 1

#	End of record

