#	Name: ASD06600018
#	Creating user name:	WinNT
#	Creation time:	15. 06. 2019 21:06

#	Modifying user name:	WinNT
#	Modification time:	15. 06. 2019 21:06

#	Program:	/corina/corina34_cracker 3.40 0067  02.08.2006

@<TRIPOS>MOLECULE
ASD06600018
 252  254    0    0    0
SMALL
NO_CHARGES


@<TRIPOS>ATOM
   1 C1            -0.1162     3.3397     1.1134 C.2     
   2 O2             0.0265     2.1566     0.8878 O.2     
   3 N3             2.3076     3.4098     1.2118 N.am    
   4 C4             1.0904     4.2170     1.3266 C.3     
   5 C5             1.1102     5.3228     0.2694 C.3     
   6 C6             2.2460     6.2711     0.5555 C.2     
   7 C7             3.2260     6.6137    -0.3023 C.2     
   8 N8             4.0417     7.4920     0.3587 N.pl3   
   9 C9             3.5314     7.6556     1.5983 C.2     
  10 N10            2.4547     6.9262     1.7071 N.2     
  11 C11           -3.6752     3.8604     0.4612 C.2     
  12 O12           -3.5287     5.0539     0.3031 O.2     
  13 N13           -1.3537     3.8708     1.1680 N.am    
  14 C14           -2.5264     3.0191     0.9547 C.3     
  15 C15           -2.9156     2.3476     2.2733 C.3     
  16 C16           -7.2843     3.4328     0.0683 C.2     
  17 O17           -7.2800     2.3753     0.6619 O.2     
  18 N18           -4.8653     3.2865     0.1954 N.am    
  19 C19           -5.9821     4.1043    -0.2844 C.3     
  20 C20           -5.8839     4.2609    -1.8032 C.3     
  21 C21           -4.6414     5.0407    -2.1485 C.ar    
  22 C22           -3.4495     4.3765    -2.3717 C.ar    
  23 C23           -2.3091     5.0890    -2.6880 C.ar    
  24 C24           -2.3606     6.4722    -2.7820 C.ar    
  25 O25           -1.2401     7.1754    -3.0935 O.3     
  26 C26           -3.5579     7.1363    -2.5581 C.ar    
  27 C27           -4.6967     6.4187    -2.2472 C.ar    
  28 C28          -10.7918     3.8025    -0.8931 C.2     
  29 O29          -10.5246     4.5893    -1.7766 O.2     
  30 N30           -8.4537     4.0076    -0.2761 N.am    
  31 C31           -9.7197     3.3548     0.0667 C.3     
  32 C32          -10.1205     3.7366     1.4931 C.3     
  33 C33           -9.0948     3.1736     2.4790 C.3     
  34 C34           -9.4956     3.5554     3.9054 C.3     
  35 N35           -8.5135     3.0164     4.8494 N.pl3   
  36 C36           -8.6657     3.2334     6.1984 C.2     
  37 N37           -7.7919     2.7538     7.0384 N.2     
  38 N38           -9.7395     3.9563     6.6616 N.pl3   
  39 C39          -14.4397     3.6256    -1.0479 C.2     
  40 O40          -14.5232     3.2051     0.0866 O.2     
  41 N41          -12.0474     3.3284    -0.7698 N.am    
  42 C42          -13.0896     3.7636    -1.7029 C.3     
  43 C43          -13.0421     2.8951    -2.9616 C.3     
  44 C44          -11.7393     3.1265    -3.6828 C.2     
  45 C45          -10.8489     2.1786    -4.0321 C.2     
  46 N46           -9.8167     2.8183    -4.6638 N.pl3   
  47 C47          -10.1125     4.1358    -4.6785 C.2     
  48 N48          -11.2662     4.3121    -4.0946 N.2     
  49 C49          -17.9259     3.6763    -2.1466 C.2     
  50 O50          -17.6148     3.6752    -3.3189 O.2     
  51 N51          -15.5545     3.9694    -1.7229 N.am    
  52 C52          -16.8670     3.8352    -1.0862 C.3     
  53 C53          -17.1611     5.0859    -0.2553 C.3     
  54 C54          -16.1596     5.1794     0.8976 C.3     
  55 C55          -16.4536     6.4300     1.7284 C.3     
  56 N56          -15.4946     6.5195     2.8323 N.pl3   
  57 C57          -15.5629     7.5681     3.7189 C.2     
  58 N58          -16.4808     8.4825     3.5773 N.2     
  59 N59          -14.6630     7.6520     4.7549 N.pl3   
  60 C60          -21.5750     3.8468    -2.2820 C.2     
  61 O61          -21.6532     4.2666    -1.1469 O.2     
  62 N62          -19.2186     3.5353    -1.7924 N.am    
  63 C63          -20.2480     3.3808    -2.8233 C.3     
  64 C64          -20.3500     1.9081    -3.2254 C.3     
  65 C65          -19.0432     1.4690    -3.8892 C.3     
  66 C66          -19.1452    -0.0037    -4.2913 C.3     
  67 N67          -17.8940    -0.4241    -4.9269 N.pl3   
  68 C68          -17.7506    -1.7161    -5.3744 C.2     
  69 N69          -16.6374    -2.0902    -5.9398 N.2     
  70 N70          -18.7814    -2.6136    -5.2255 N.pl3   
  71 C71          -25.0627     3.4089    -3.2511 C.2     
  72 O72          -24.8704     3.0513    -4.3939 O.2     
  73 N73          -22.6748     3.7969    -3.0594 N.am    
  74 C74          -23.9834     4.1454    -2.5003 C.3     
  75 C75          -24.2089     5.6530    -2.6313 C.3     
  76 C76          -25.5043     6.0391    -1.9146 C.3     
  77 C77          -25.3387     5.8214    -0.4093 C.3     
  78 C78          -25.8176     7.5119    -2.1856 C.3     
  79 C79          -28.6529     2.9336    -2.8230 C.2     
  80 O80          -28.6898     3.5070    -1.7549 O.2     
  81 N81          -26.2416     3.1475    -2.6525 N.am    
  82 C82          -27.3279     2.5261    -3.4141 C.3     
  83 C83          -27.1883     1.0038    -3.3520 C.3     
  84 C84          -28.2227     0.3587    -4.2766 C.3     
  85 C85          -27.9068     0.7236    -5.7285 C.3     
  86 C86          -28.1766    -1.1617    -4.1113 C.3     
  87 C87          -32.1560     2.0932    -3.4432 C.2     
  88 O88          -31.8668     1.2593    -4.2750 O.2     
  89 N89          -29.7969     2.6607    -3.4812 N.am    
  90 C90          -31.0883     2.9912    -2.8735 C.3     
  91 C91          -31.4352     4.4506    -3.1748 C.3     
  92 O92          -31.6264     4.6142    -4.5815 O.3     
  93 C93          -34.9846     1.9303    -4.8718 C.2     
  94 O94          -34.5306     2.9707    -5.2857 O.2     
  95 N95          -33.4324     2.2168    -3.0285 N.am    
  96 C96          -34.4704     1.3438    -3.5823 C.3     
  97 C97          -35.6219     1.2227    -2.5822 C.3     
  98 C98          -36.6474     0.2146    -3.1048 C.3     
  99 C99          -37.7348    -0.0001    -2.0501 C.3     
 100 C100         -36.2915     2.5872    -2.4076 C.3     
 101 O101         -35.9470     1.2968    -5.5605 O.3     
 102 C102           3.4382     3.8034     1.8310 C.2     
 103 O103           3.4479     4.8259     2.4831 O.2     
 104 C104          21.4914     1.7223     6.4067 C.3     
 105 C105          20.2203     2.5654     6.5266 C.3     
 106 C106          19.0912     1.9010     5.7361 C.3     
 107 C107          17.8201     2.7440     5.8560 C.3     
 108 C108          16.6911     2.0797     5.0656 C.3     
 109 C109          15.4199     2.9227     5.1855 C.3     
 110 C110          14.2909     2.2584     4.3950 C.3     
 111 C111          13.0197     3.1014     4.5149 C.3     
 112 C112          11.8907     2.4370     3.7245 C.3     
 113 C113          10.6196     3.2801     3.8444 C.3     
 114 C114           9.4905     2.6157     3.0539 C.3     
 115 C115           8.2194     3.4587     3.1738 C.3     
 116 C116           7.0904     2.7944     2.3834 C.3     
 117 C117           5.8192     3.6374     2.5033 C.3     
 118 C118           4.6902     2.9731     1.7129 C.3     
 119 H119           2.2998     2.5920     0.6902 H       
 120 H120           1.0435     4.6644     2.3195 H       
 121 H121           1.2465     4.8798    -0.7172 H       
 122 H122           0.1665     5.8676     0.2958 H       
 123 H123           3.3456     6.2627    -1.3166 H       
 124 H124           4.8376     7.9174     0.0032 H       
 125 H125           3.9437     8.2884     2.3703 H       
 126 H126          -1.4678     4.8170     1.3485 H       
 127 H127          -2.2908     2.2552     0.2137 H       
 128 H128          -3.7881     1.7139     2.1146 H       
 129 H129          -2.0847     1.7391     2.6303 H       
 130 H130          -3.1512     3.1115     3.0143 H       
 131 H131          -4.9825     2.3319     0.3218 H       
 132 H132          -5.9410     5.0869     0.1856 H       
 133 H133          -5.8355     3.2760    -2.2676 H       
 134 H134          -6.7610     4.7933    -2.1710 H       
 135 H135          -3.4099     3.2997    -2.2984 H       
 136 H136          -1.3781     4.5698    -2.8615 H       
 137 H137          -1.1132     7.3132    -4.0422 H       
 138 H138          -3.6004     8.2130    -2.6304 H       
 139 H139          -5.6300     6.9348    -2.0771 H       
 140 H140          -8.4572     4.8534    -0.7509 H       
 141 H141          -9.6006     2.2734    -0.0001 H       
 142 H142         -10.1530     4.8224     1.5831 H       
 143 H143         -11.1041     3.3238     1.7169 H       
 144 H144          -9.0623     2.0878     2.3890 H       
 145 H145          -8.1111     3.5864     2.2552 H       
 146 H146          -9.5281     4.6412     3.9954 H       
 147 H147         -10.4793     3.1426     4.1292 H       
 148 H148          -7.7559     2.5063     4.5227 H       
 149 H149          -7.8992     2.9070     7.9902 H       
 150 H150         -10.3897     4.3132     6.0365 H       
 151 H151          -9.8468     4.1095     7.6134 H       
 152 H152         -12.2610     2.6992    -0.0632 H       
 153 H153         -12.9222     4.8060    -1.9742 H       
 154 H154         -13.1207     1.8447    -2.6814 H       
 155 H155         -13.8721     3.1594    -3.6169 H       
 156 H156         -10.9328     1.1176    -3.8487 H       
 157 H157          -9.0213     2.4028    -5.0320 H       
 158 H158          -9.4981     4.9141    -5.1064 H       
 159 H159         -15.4877     4.3057    -2.6303 H       
 160 H160         -16.8683     2.9594    -0.4373 H       
 161 H161         -17.0724     5.9703    -0.8862 H       
 162 H162         -18.1727     5.0259     0.1461 H       
 163 H163         -16.2482     4.2949     1.5284 H       
 164 H164         -15.1480     5.2394     0.4961 H       
 165 H165         -16.3649     7.3144     1.0975 H       
 166 H166         -17.4652     6.3700     2.1299 H       
 167 H167         -14.8115     5.8389     2.9377 H       
 168 H168         -16.5290     9.2224     4.2028 H       
 169 H169         -13.9799     6.9715     4.8603 H       
 170 H170         -14.7112     8.3918     5.3804 H       
 171 H171         -19.4674     3.5362    -0.8548 H       
 172 H172         -19.9814     3.9779    -3.6953 H       
 173 H173         -20.5288     1.3007    -2.3382 H       
 174 H174         -21.1747     1.7792    -3.9263 H       
 175 H175         -18.8644     2.0764    -4.7764 H       
 176 H176         -18.2185     1.5980    -3.1883 H       
 177 H177         -19.3241    -0.6110    -3.4041 H       
 178 H178         -19.9700    -0.1326    -4.9922 H       
 179 H179         -17.1667     0.2091    -5.0319 H       
 180 H180         -16.5362    -3.0018    -6.2556 H       
 181 H181         -19.6099    -2.3352    -4.8047 H       
 182 H182         -18.6802    -3.5251    -5.5412 H       
 183 H183         -22.6000     3.5304    -3.9890 H       
 184 H184         -24.0156     3.8633    -1.4479 H       
 185 H185         -23.3717     6.1861    -2.1808 H       
 186 H186         -24.2838     5.9189    -3.6857 H       
 187 H187         -26.3220     5.4199    -2.2835 H       
 188 H188         -26.2789     6.0435     0.0955 H       
 189 H189         -25.0610     4.7845    -0.2205 H       
 190 H190         -24.5583     6.4813    -0.0304 H       
 191 H191         -25.9356     7.6670    -3.2580 H       
 192 H192         -26.7405     7.7870    -1.6750 H       
 193 H193         -24.9999     8.1311    -1.8167 H       
 194 H194         -26.3709     3.3709    -1.7175 H       
 195 H195         -27.2772     2.8536    -4.4525 H       
 196 H196         -26.1864     0.7174    -3.6719 H       
 197 H197         -27.3539     0.6651    -2.3293 H       
 198 H198         -29.2174     0.7222    -4.0187 H       
 199 H199         -28.6778     0.3150    -6.3818 H       
 200 H200         -27.8796     1.8082    -5.8328 H       
 201 H201         -26.9381     0.3075    -6.0052 H       
 202 H202         -28.4016    -1.4217    -3.0769 H       
 203 H203         -28.9135    -1.6213    -4.7700 H       
 204 H204         -27.1819    -1.5253    -4.3692 H       
 205 H205         -29.7652     2.2456    -4.3573 H       
 206 H206         -31.0298     2.8469    -1.7947 H       
 207 H207         -32.3509     4.7223    -2.6497 H       
 208 H208         -30.6207     5.0939    -2.8416 H       
 209 H209         -31.8496     5.5172    -4.8457 H       
 210 H210         -33.6638     2.8838    -2.3633 H       
 211 H211         -34.0504     0.3565    -3.7742 H       
 212 H212         -35.2347     0.8824    -1.6218 H       
 213 H213         -37.0993     0.5972    -4.0199 H       
 214 H214         -36.1513    -0.7333    -3.3134 H       
 215 H215         -38.4653    -0.7183    -2.4224 H       
 216 H216         -37.2828    -0.3828    -1.1350 H       
 217 H217         -38.2308     0.9478    -1.8415 H       
 218 H218         -36.6787     2.9275    -3.3680 H       
 219 H219         -37.1119     2.5009    -1.6951 H       
 220 H220         -35.5610     3.3054    -2.0353 H       
 221 H221         -36.2445     1.7115    -6.3818 H       
 222 H222          22.2958     2.1956     6.9698 H       
 223 H223          21.3054     0.7256     6.8068 H       
 224 H224          21.7786     1.6451     5.3580 H       
 225 H225          19.9331     2.6426     7.5752 H       
 226 H226          20.4062     3.5621     6.1265 H       
 227 H227          19.3785     1.8238     4.6875 H       
 228 H228          18.9053     0.9043     6.1362 H       
 229 H229          17.5329     2.8212     6.9047 H       
 230 H230          18.0061     3.7408     5.4559 H       
 231 H231          16.9783     2.0025     4.0169 H       
 232 H232          16.5051     1.0830     5.4657 H       
 233 H233          15.1327     2.9999     6.2341 H       
 234 H234          15.6059     3.9194     4.7854 H       
 235 H235          14.5781     2.1812     3.3464 H       
 236 H236          14.1049     1.2616     4.7951 H       
 237 H237          12.7325     3.1786     5.5636 H       
 238 H238          13.2057     4.0981     4.1148 H       
 239 H239          12.1779     2.3598     2.6758 H       
 240 H240          11.7047     1.4403     4.1246 H       
 241 H241          10.3324     3.3573     4.8930 H       
 242 H242          10.8055     4.2768     3.4443 H       
 243 H243           9.7778     2.5385     2.0053 H       
 244 H244           9.3046     1.6190     3.4540 H       
 245 H245           7.9322     3.5359     4.2225 H       
 246 H246           8.4054     4.4555     2.7738 H       
 247 H247           7.3776     2.7172     1.3348 H       
 248 H248           6.9044     1.7977     2.7835 H       
 249 H249           5.5320     3.7146     3.5519 H       
 250 H250           6.0052     4.6341     2.1032 H       
 251 H251           4.5042     1.9763     2.1129 H       
 252 H252           4.9774     2.8959     0.6642 H       
@<TRIPOS>BOND
   1    1    2 2
   2    1    4 1
   3    1   13 am
   4    3  102 am
   5    3    4 1
   6    3  119 1
   7    4    5 1
   8    4  120 1
   9    5    6 1
  10    5  121 1
  11    5  122 1
  12    6    7 2
  13    6   10 1
  14    7    8 1
  15    7  123 1
  16    8    9 1
  17    8  124 1
  18    9   10 2
  19    9  125 1
  20   11   12 2
  21   11   14 1
  22   11   18 am
  23   13   14 1
  24   13  126 1
  25   14   15 1
  26   14  127 1
  27   15  128 1
  28   15  129 1
  29   15  130 1
  30   16   17 2
  31   16   19 1
  32   16   30 am
  33   18   19 1
  34   18  131 1
  35   19   20 1
  36   19  132 1
  37   20   21 1
  38   20  133 1
  39   20  134 1
  40   21   22 ar
  41   21   27 ar
  42   22   23 ar
  43   22  135 1
  44   23   24 ar
  45   23  136 1
  46   24   25 1
  47   24   26 ar
  48   25  137 1
  49   26   27 ar
  50   26  138 1
  51   27  139 1
  52   28   29 2
  53   28   31 1
  54   28   41 am
  55   30   31 1
  56   30  140 1
  57   31   32 1
  58   31  141 1
  59   32   33 1
  60   32  142 1
  61   32  143 1
  62   33   34 1
  63   33  144 1
  64   33  145 1
  65   34   35 1
  66   34  146 1
  67   34  147 1
  68   35   36 1
  69   35  148 1
  70   36   37 2
  71   36   38 1
  72   37  149 1
  73   38  150 1
  74   38  151 1
  75   39   40 2
  76   39   42 1
  77   39   51 am
  78   41   42 1
  79   41  152 1
  80   42   43 1
  81   42  153 1
  82   43   44 1
  83   43  154 1
  84   43  155 1
  85   44   45 2
  86   44   48 1
  87   45   46 1
  88   45  156 1
  89   46   47 1
  90   46  157 1
  91   47   48 2
  92   47  158 1
  93   49   50 2
  94   49   52 1
  95   49   62 am
  96   51   52 1
  97   51  159 1
  98   52   53 1
  99   52  160 1
 100   53   54 1
 101   53  161 1
 102   53  162 1
 103   54   55 1
 104   54  163 1
 105   54  164 1
 106   55   56 1
 107   55  165 1
 108   55  166 1
 109   56   57 1
 110   56  167 1
 111   57   58 2
 112   57   59 1
 113   58  168 1
 114   59  169 1
 115   59  170 1
 116   60   61 2
 117   60   63 1
 118   60   73 am
 119   62   63 1
 120   62  171 1
 121   63   64 1
 122   63  172 1
 123   64   65 1
 124   64  173 1
 125   64  174 1
 126   65   66 1
 127   65  175 1
 128   65  176 1
 129   66   67 1
 130   66  177 1
 131   66  178 1
 132   67   68 1
 133   67  179 1
 134   68   69 2
 135   68   70 1
 136   69  180 1
 137   70  181 1
 138   70  182 1
 139   71   72 2
 140   71   74 1
 141   71   81 am
 142   73   74 1
 143   73  183 1
 144   74   75 1
 145   74  184 1
 146   75   76 1
 147   75  185 1
 148   75  186 1
 149   76   77 1
 150   76   78 1
 151   76  187 1
 152   77  188 1
 153   77  189 1
 154   77  190 1
 155   78  191 1
 156   78  192 1
 157   78  193 1
 158   79   80 2
 159   79   82 1
 160   79   89 am
 161   81   82 1
 162   81  194 1
 163   82   83 1
 164   82  195 1
 165   83   84 1
 166   83  196 1
 167   83  197 1
 168   84   85 1
 169   84   86 1
 170   84  198 1
 171   85  199 1
 172   85  200 1
 173   85  201 1
 174   86  202 1
 175   86  203 1
 176   86  204 1
 177   87   88 2
 178   87   90 1
 179   87   95 am
 180   89   90 1
 181   89  205 1
 182   90   91 1
 183   90  206 1
 184   91   92 1
 185   91  207 1
 186   91  208 1
 187   92  209 1
 188   93   94 2
 189   93   96 1
 190   93  101 1
 191   95   96 1
 192   95  210 1
 193   96   97 1
 194   96  211 1
 195   97   98 1
 196   97  100 1
 197   97  212 1
 198   98   99 1
 199   98  213 1
 200   98  214 1
 201   99  215 1
 202   99  216 1
 203   99  217 1
 204  100  218 1
 205  100  219 1
 206  100  220 1
 207  101  221 1
 208  102  103 2
 209  102  118 1
 210  104  105 1
 211  104  222 1
 212  104  223 1
 213  104  224 1
 214  105  106 1
 215  105  225 1
 216  105  226 1
 217  106  107 1
 218  106  227 1
 219  106  228 1
 220  107  108 1
 221  107  229 1
 222  107  230 1
 223  108  109 1
 224  108  231 1
 225  108  232 1
 226  109  110 1
 227  109  233 1
 228  109  234 1
 229  110  111 1
 230  110  235 1
 231  110  236 1
 232  111  112 1
 233  111  237 1
 234  111  238 1
 235  112  113 1
 236  112  239 1
 237  112  240 1
 238  113  114 1
 239  113  241 1
 240  113  242 1
 241  114  115 1
 242  114  243 1
 243  114  244 1
 244  115  116 1
 245  115  245 1
 246  115  246 1
 247  116  117 1
 248  116  247 1
 249  116  248 1
 250  117  118 1
 251  117  249 1
 252  117  250 1
 253  118  251 1
 254  118  252 1

#	End of record

