#	Name: ASD05213045
#	Creating user name:	WinNT
#	Creation time:	15. 06. 2019 20:57

#	Modifying user name:	WinNT
#	Modification time:	15. 06. 2019 20:57

#	Program:	/corina/corina34_cracker 3.40 0067  02.08.2006

@<TRIPOS>MOLECULE
ASD05213045
  50   53    0    0    0
SMALL
NO_CHARGES


@<TRIPOS>ATOM
   1 C1            -0.0168     1.3889     0.0097 C.ar    
   2 C2             0.0021    -0.0041     0.0020 C.ar    
   3 C3            -1.1831    -0.7096     0.0100 C.ar    
   4 C4            -2.3970    -0.0353     0.0257 C.ar    
   5 C5            -2.4245     1.3517     0.0334 C.ar    
   6 C6            -1.2398     2.0677     0.0309 C.ar    
   7 C7             1.2559     2.1499     0.0016 C.ar    
   8 C8             2.2628     1.8388     0.9139 C.ar    
   9 C9             3.4452     2.5504     0.9018 C.ar    
  10 C10            3.6321     3.5707    -0.0134 C.ar    
  11 C11            2.6362     3.8841    -0.9208 C.ar    
  12 C12            1.4521     3.1751    -0.9220 C.ar    
  13 C13            4.9255     4.3440    -0.0215 C.3     
  14 N14            5.8791     3.6913    -0.9221 N.pl3   
  15 C15            5.9253     4.0482    -2.2543 C.2     
  16 C16            6.7836     2.6598    -0.4082 C.3     
  17 C17            6.1173     1.2883    -0.5346 C.3     
  18 C18            7.0620     0.2110     0.0021 C.3     
  19 O19           -1.2649     3.4258     0.0388 O.3     
  20 O20           -3.5610    -0.7359     0.0331 O.3     
  21 N21            5.1750     4.9409    -2.8035 N.2     
  22 C22            5.3395     5.1791    -4.1202 C.ar    
  23 C23            6.3368     4.3866    -4.6957 C.ar    
  24 S24            7.0210     3.3551    -3.4417 S.3     
  25 C25            4.6517     6.0949    -4.9444 C.ar    
  26 C26            4.9607     6.1985    -6.2771 C.ar    
  27 C27            5.9524     5.4056    -6.8356 C.ar    
  28 C28            6.6370     4.5048    -6.0503 C.ar    
  29 H29            0.9445    -0.5314    -0.0105 H       
  30 H30           -1.1670    -1.7895     0.0037 H       
  31 H31           -3.3703     1.8729     0.0453 H       
  32 H32            2.1178     1.0426     1.6291 H       
  33 H33            4.2259     2.3105     1.6085 H       
  34 H34            2.7873     4.6821    -1.6326 H       
  35 H35            0.6752     3.4207    -1.6309 H       
  36 H36            4.7385     5.3612    -0.3658 H       
  37 H37            5.3386     4.3719     0.9868 H       
  38 H38            7.7091     2.6685    -0.9840 H       
  39 H39            7.0058     2.8606     0.6398 H       
  40 H40            5.1918     1.2796     0.0412 H       
  41 H41            5.8951     1.0874    -1.5826 H       
  42 H42            7.2841     0.4119     1.0501 H       
  43 H43            6.5873    -0.7661    -0.0879 H       
  44 H44            7.9875     0.2197    -0.5737 H       
  45 H45           -1.2671     3.8139     0.9245 H       
  46 H46           -3.8894    -0.9438     0.9186 H       
  47 H47            3.8766     6.7181    -4.5234 H       
  48 H48            4.4267     6.9034    -6.8970 H       
  49 H49            6.1875     5.4945    -7.8860 H       
  50 H50            7.4091     3.8883    -6.4864 H       
@<TRIPOS>BOND
   1    1    2 ar
   2    1    7 1
   3    1    6 ar
   4    2    3 ar
   5    2   29 1
   6    3    4 ar
   7    3   30 1
   8    4    5 ar
   9    4   20 1
  10    5    6 ar
  11    5   31 1
  12    6   19 1
  13    7    8 ar
  14    7   12 ar
  15    8    9 ar
  16    8   32 1
  17    9   10 ar
  18    9   33 1
  19   10   11 ar
  20   10   13 1
  21   11   12 ar
  22   11   34 1
  23   12   35 1
  24   13   14 1
  25   13   36 1
  26   13   37 1
  27   14   15 1
  28   14   16 1
  29   15   21 2
  30   15   24 1
  31   16   17 1
  32   16   38 1
  33   16   39 1
  34   17   18 1
  35   17   40 1
  36   17   41 1
  37   18   42 1
  38   18   43 1
  39   18   44 1
  40   19   45 1
  41   20   46 1
  42   21   22 1
  43   22   23 ar
  44   22   25 ar
  45   23   24 1
  46   23   28 ar
  47   25   26 ar
  48   25   47 1
  49   26   27 ar
  50   26   48 1
  51   27   28 ar
  52   27   49 1
  53   28   50 1

#	End of record

