#	Name: ASD00170511
#	Creating user name:	WinNT
#	Creation time:	15. 06. 2019 18:32

#	Modifying user name:	WinNT
#	Modification time:	15. 06. 2019 18:32

#	Program:	/corina/corina34_cracker 3.40 0067  02.08.2006

@<TRIPOS>MOLECULE
ASD00170511
  50   53    0    0    0
SMALL
NO_CHARGES


@<TRIPOS>ATOM
   1 C1             0.2555     2.5185     0.0765 C.ar    
   2 C2             0.1101     1.1454     0.0136 C.ar    
   3 C3             1.2260     0.3312    -0.0281 C.ar    
   4 C4             2.4949     0.8931    -0.0072 C.ar    
   5 C5             2.6388     2.2754     0.0557 C.ar    
   6 C6             1.5180     3.0835     0.0976 C.ar    
   7 N7             3.6259     0.0718    -0.0487 N.3     
   8 C8             3.6529    -0.8459     1.0988 C.3     
   9 C9             4.8600    -1.7786     0.9745 C.3     
  10 N10            6.0906    -0.9776     0.9154 N.3     
  11 C11            6.0637    -0.0599    -0.2321 C.3     
  12 C12            4.8566     0.8728    -0.1078 C.3     
  13 C13            7.2788    -1.8403     0.8717 C.3     
  14 C14            8.4952    -1.0050     0.5660 C.2     
  15 C15            9.0365    -0.9195    -0.6391 C.2     
  16 S16           10.4350     0.1398    -0.6242 S.3     
  17 C17           10.2696     0.4613     1.0415 C.2     
  18 C18            9.1862    -0.2100     1.5593 C.2     
  19 C19            8.7821    -0.1363     2.9632 C.2     
  20 O20            7.9628     0.6917     3.3183 O.2     
  21 C21            9.3685    -1.0673     3.9513 C.ar    
  22 C22            9.0683    -0.9298     5.3077 C.ar    
  23 C23            9.6182    -1.8009     6.2245 C.ar    
  24 C24           10.4667    -2.8107     5.8018 C.ar    
  25 C25           10.7682    -2.9521     4.4573 C.ar    
  26 C26           10.2199    -2.0906     3.5306 C.ar    
  27 Cl27          11.1556    -3.9033     6.9618 Cl      
  28 N28           11.1038     1.2858     1.7689 N.pl3   
  29 F29            3.8719     2.8270     0.0768 F       
  30 H30           -0.6187     3.1521     0.1048 H       
  31 H31           -0.8772     0.7080    -0.0027 H       
  32 H32            1.1108    -0.7416    -0.0765 H       
  33 H33            1.6282     4.1568     0.1461 H       
  34 H34            3.7306    -0.2716     2.0219 H       
  35 H35            2.7369    -1.4366     1.1136 H       
  36 H36            4.8984    -2.4409     1.8393 H       
  37 H37            4.7686    -2.3724     0.0650 H       
  38 H38            6.9796     0.5308    -0.2469 H       
  39 H39            5.9860    -0.6342    -1.1553 H       
  40 H40            4.8182     1.5351    -0.9726 H       
  41 H41            4.9480     1.4666     0.8017 H       
  42 H42            7.4076    -2.3303     1.8368 H       
  43 H43            7.1516    -2.5948     0.0953 H       
  44 H44            8.6670    -1.4335    -1.5141 H       
  45 H45            8.4071    -0.1425     5.6385 H       
  46 H46            9.3870    -1.6953     7.2742 H       
  47 H47           11.4305    -3.7414     4.1336 H       
  48 H48           10.4554    -2.2020     2.4825 H       
  49 H49           11.8919     1.6680     1.3521 H       
  50 H50           10.9021     1.4830     2.6970 H       
@<TRIPOS>BOND
   1    1    2 ar
   2    1    6 ar
   3    1   30 1
   4    2    3 ar
   5    2   31 1
   6    3    4 ar
   7    3   32 1
   8    4    5 ar
   9    4    7 1
  10    5    6 ar
  11    5   29 1
  12    6   33 1
  13    7    8 1
  14    7   12 1
  15    8    9 1
  16    8   34 1
  17    8   35 1
  18    9   10 1
  19    9   36 1
  20    9   37 1
  21   10   11 1
  22   10   13 1
  23   11   12 1
  24   11   38 1
  25   11   39 1
  26   12   40 1
  27   12   41 1
  28   13   14 1
  29   13   42 1
  30   13   43 1
  31   14   15 2
  32   14   18 1
  33   15   16 1
  34   15   44 1
  35   16   17 1
  36   17   18 2
  37   17   28 1
  38   18   19 1
  39   19   20 2
  40   19   21 1
  41   21   22 ar
  42   21   26 ar
  43   22   23 ar
  44   22   45 1
  45   23   24 ar
  46   23   46 1
  47   24   25 ar
  48   24   27 1
  49   25   26 ar
  50   25   47 1
  51   26   48 1
  52   28   49 1
  53   28   50 1

#	End of record

