#	Name: ASD01028290
#	Creating user name:	WinNT
#	Creation time:	15. 06. 2019 18:56

#	Modifying user name:	WinNT
#	Modification time:	15. 06. 2019 18:56

#	Program:	/corina/corina34_cracker 3.40 0067  02.08.2006

@<TRIPOS>MOLECULE
ASD01028290
  51   55    0    0    0
SMALL
NO_CHARGES


@<TRIPOS>ATOM
   1 C1             0.0708     3.2387     0.1035 C.ar    
   2 C2            -0.1651     1.8837     0.0558 C.ar    
   3 C3             1.3770     3.7377     0.1046 C.ar    
   4 C4             2.4441     2.8950     0.0585 C.ar    
   5 C5             2.2370     1.5082     0.0092 C.ar    
   6 C6             0.9185     0.9918     0.0076 C.ar    
   7 C7             3.3239     0.6064    -0.0398 C.ar    
   8 C8             3.0422    -0.7473    -0.0873 C.ar    
   9 C9             1.7211    -1.1766    -0.0856 C.ar    
  10 N10            0.7189    -0.3306    -0.0394 N.ar    
  11 O11            4.6036     1.0542    -0.0407 O.3     
  12 C12            5.6361     0.0676    -0.0921 C.3     
  13 C13            6.9811     0.7472    -0.0852 C.2     
  14 N14            7.7158     1.0694     1.0161 N.pl3   
  15 C15            8.8593     1.6676     0.5424 C.2     
  16 N16            8.7664     1.6790    -0.7762 N.2     
  17 N17            7.6594     1.1305    -1.1349 N.2     
  18 C18            7.5191     0.9115     2.3510 C.2     
  19 C19            8.4565     1.3462     3.2431 C.2     
  20 C20            9.6445     1.9665     2.7789 C.2     
  21 C21            9.8419     2.1229     1.4462 C.2     
  22 C22            8.2334     1.1711     4.6913 C.2     
  23 O23           -0.9775     4.1015     0.1444 O.3     
  24 C24           -0.6685     5.4959     0.1929 C.3     
  25 O25            7.2147     0.6397     5.0897 O.2     
  26 N26            9.1586     1.6001     5.5724 N.am    
  27 C27            8.9049     1.5236     6.9456 C.ar    
  28 C28            8.1837     0.4547     7.4612 C.ar    
  29 C29            9.3789     2.5133     7.7968 C.ar    
  30 C30            9.1278     2.4358     9.1530 C.ar    
  31 C31            8.4053     1.3742     9.6646 C.ar    
  32 C32            7.9351     0.3820     8.8198 C.ar    
  33 F33            7.2292    -0.6544     9.3226 F       
  34 H34           -1.1778     1.5085     0.0558 H       
  35 H35            1.5408     4.8046     0.1421 H       
  36 H36            3.4482     3.2926     0.0595 H       
  37 H37            3.8462    -1.4673    -0.1260 H       
  38 H38            1.5131    -2.2357    -0.1230 H       
  39 H39            5.5557    -0.5880     0.7750 H       
  40 H40            5.5311    -0.5210    -1.0035 H       
  41 H41            6.6158     0.4397     2.7084 H       
  42 H42           10.3878     2.3115     3.4824 H       
  43 H43           10.7424     2.5936     1.0803 H       
  44 H44           -0.0961     5.7722    -0.6925 H       
  45 H45           -1.5932     6.0722     0.2222 H       
  46 H46           -0.0805     5.7069     1.0862 H       
  47 H47           10.0004     1.9620     5.2542 H       
  48 H48            7.8170    -0.3184     6.8022 H       
  49 H49            9.9439     3.3432     7.3987 H       
  50 H50            9.4969     3.2055     9.8146 H       
  51 H51            8.2108     1.3159    10.7253 H       
@<TRIPOS>BOND
   1    1    2 ar
   2    1    3 ar
   3    1   23 1
   4    2    6 ar
   5    2   34 1
   6    3    4 ar
   7    3   35 1
   8    4    5 ar
   9    4   36 1
  10    5    6 ar
  11    5    7 ar
  12    6   10 ar
  13    7    8 ar
  14    7   11 1
  15    8    9 ar
  16    8   37 1
  17    9   10 ar
  18    9   38 1
  19   11   12 1
  20   12   13 1
  21   12   39 1
  22   12   40 1
  23   13   14 1
  24   13   17 2
  25   14   15 1
  26   14   18 1
  27   15   16 2
  28   15   21 1
  29   16   17 1
  30   18   19 2
  31   18   41 1
  32   19   20 1
  33   19   22 1
  34   20   21 2
  35   20   42 1
  36   21   43 1
  37   22   25 2
  38   22   26 am
  39   23   24 1
  40   24   44 1
  41   24   45 1
  42   24   46 1
  43   26   27 1
  44   26   47 1
  45   27   28 ar
  46   27   29 ar
  47   28   32 ar
  48   28   48 1
  49   29   30 ar
  50   29   49 1
  51   30   31 ar
  52   30   50 1
  53   31   32 ar
  54   31   51 1
  55   32   33 1

#	End of record

