#	Name: ASD04882578
#	Creating user name:	WinNT
#	Creation time:	15. 06. 2019 20:55

#	Modifying user name:	WinNT
#	Modification time:	15. 06. 2019 20:55

#	Program:	/corina/corina34_cracker 3.40 0067  02.08.2006

@<TRIPOS>MOLECULE
ASD04882578
  82   86    0    0    0
SMALL
NO_CHARGES


@<TRIPOS>ATOM
   1 C1            -0.0169     1.3933     0.0097 C.ar    
   2 C2             0.0021    -0.0041     0.0020 C.ar    
   3 C3            -1.1907    -0.7173     0.0101 C.ar    
   4 C4            -2.3958    -0.0500     0.0256 C.ar    
   5 C5            -2.4220     1.3471     0.0334 C.ar    
   6 C6            -1.2234     2.0668     0.0306 C.ar    
   7 N7             1.2187    -0.6833    -0.0142 N.3     
   8 C8             1.3564    -1.5453     1.1680 C.3     
   9 C9             1.3705    -1.4623    -1.2510 C.3     
  10 C10            2.7488    -2.1275    -1.2658 C.3     
  11 N11            2.8865    -2.9895    -0.0836 N.3     
  12 C12            2.7347    -2.2105     1.1532 C.3     
  13 C13           -3.7126     2.0616     0.0501 C.2     
  14 O14           -3.7345     3.2774     0.0568 O.2     
  15 N15           -4.8675     1.3668     0.0579 N.am    
  16 N16            1.1859     2.1105     0.0021 N.pl3   
  17 C17            4.1060    -3.6703    -0.0999 C.ar    
  18 C18            4.1278    -5.0591    -0.1075 C.ar    
  19 C19            5.3355    -5.7291    -0.1241 C.ar    
  20 C20            6.5218    -5.0190    -0.1326 C.ar    
  21 C21            6.5037    -3.6361    -0.1250 C.ar    
  22 C22            5.2998    -2.9599    -0.1142 C.ar    
  23 C23            2.8353    -5.8339    -0.0973 C.3     
  24 C24            1.1654     3.5754     0.0101 C.3     
  25 C25            2.5789     4.0976    -0.0006 C.2     
  26 C26            3.3064     4.3761    -1.0972 C.2     
  27 C27            4.5651     4.8371    -0.6476 C.2     
  28 C28            4.5315     4.8127     0.6969 C.2     
  29 O29            3.3240     4.3695     1.0833 O.3     
  30 C30           -6.1491     2.0764     0.0745 C.3     
  31 C31           -7.2767     1.0766     0.0804 C.ar    
  32 C32           -7.7819     0.6118     1.2800 C.ar    
  33 C33            5.6561     5.2192     1.6141 C.3     
  34 C34           -7.8097     0.6287    -1.1141 C.ar    
  35 C35           -8.8439    -0.2882    -1.1087 C.ar    
  36 C36           -9.3451    -0.7578     0.0912 C.ar    
  37 C37           -8.8163    -0.3055     1.2854 C.ar    
  38 C38           -9.3627    -0.8173     2.5933 C.3     
  39 N39           -8.6166    -2.0156     3.0002 N.3     
  40 C40           -7.2192    -1.6856     3.3104 C.3     
  41 C41           -9.2662    -2.6788     4.1387 C.3     
  42 H42           -1.1728    -1.7971     0.0037 H       
  43 H43           -3.3210    -0.6071     0.0315 H       
  44 H44           -1.2405     3.1466     0.0366 H       
  45 H45            1.2527    -0.9435     2.0709 H       
  46 H46            0.5822    -2.3124     1.1509 H       
  47 H47            0.5964    -2.2284    -1.2956 H       
  48 H48            1.2771    -0.8000    -2.1117 H       
  49 H49            2.8525    -2.7293    -2.1687 H       
  50 H50            3.5230    -1.3605    -1.2487 H       
  51 H51            3.5088    -1.4444     1.1978 H       
  52 H52            2.8281    -2.8728     2.0139 H       
  53 H53           -4.8501     0.3970     0.0525 H       
  54 H54            2.0326     1.6374    -0.0086 H       
  55 H55            5.3532    -6.8090    -0.1301 H       
  56 H56            7.4648    -5.5455    -0.1448 H       
  57 H57            7.4322    -3.0845    -0.1313 H       
  58 H58            5.2864    -1.8800    -0.1086 H       
  59 H59            2.5122    -6.0152    -1.1224 H       
  60 H60            2.9869    -6.7867     0.4098 H       
  61 H61            2.0719    -5.2601     0.4281 H       
  62 H62            0.6380     3.9362    -0.8729 H       
  63 H63            0.6550     3.9267     0.9069 H       
  64 H64            2.9899     4.2678    -2.1241 H       
  65 H65            5.3945     5.1486    -1.2652 H       
  66 H66           -6.2092     2.6971     0.9685 H       
  67 H67           -6.2270     2.7067    -0.8114 H       
  68 H68           -7.3682     0.9647     2.2131 H       
  69 H69            5.5717     6.2813     1.8438 H       
  70 H70            5.5988     4.6421     2.5370 H       
  71 H71            6.6111     5.0280     1.1248 H       
  72 H72           -7.4182     0.9956    -2.0514 H       
  73 H73           -9.2607    -0.6375    -2.0417 H       
  74 H74          -10.1535    -1.4740     0.0954 H       
  75 H75           -9.2576    -0.0470     3.3573 H       
  76 H76          -10.4165    -1.0688     2.4733 H       
  77 H77           -7.1890    -0.9618     4.1248 H       
  78 H78           -6.6898    -2.5905     3.6087 H       
  79 H79           -6.7419    -1.2597     2.4279 H       
  80 H80          -10.2770    -2.9749     3.8583 H       
  81 H81           -8.6934    -3.5626     4.4195 H       
  82 H82           -9.3101    -1.9909     4.9831 H       
@<TRIPOS>BOND
   1    1    2 ar
   2    1   16 1
   3    1    6 ar
   4    2    3 ar
   5    2    7 1
   6    3    4 ar
   7    3   42 1
   8    4    5 ar
   9    4   43 1
  10    5    6 ar
  11    5   13 1
  12    6   44 1
  13    7    8 1
  14    7    9 1
  15    8   12 1
  16    8   45 1
  17    8   46 1
  18    9   10 1
  19    9   47 1
  20    9   48 1
  21   10   11 1
  22   10   49 1
  23   10   50 1
  24   11   12 1
  25   11   17 1
  26   12   51 1
  27   12   52 1
  28   13   14 2
  29   13   15 am
  30   15   30 1
  31   15   53 1
  32   16   24 1
  33   16   54 1
  34   17   18 ar
  35   17   22 ar
  36   18   19 ar
  37   18   23 1
  38   19   20 ar
  39   19   55 1
  40   20   21 ar
  41   20   56 1
  42   21   22 ar
  43   21   57 1
  44   22   58 1
  45   23   59 1
  46   23   60 1
  47   23   61 1
  48   24   25 1
  49   24   62 1
  50   24   63 1
  51   25   26 2
  52   25   29 1
  53   26   27 1
  54   26   64 1
  55   27   28 2
  56   27   65 1
  57   28   29 1
  58   28   33 1
  59   30   31 1
  60   30   66 1
  61   30   67 1
  62   31   32 ar
  63   31   34 ar
  64   32   37 ar
  65   32   68 1
  66   33   69 1
  67   33   70 1
  68   33   71 1
  69   34   35 ar
  70   34   72 1
  71   35   36 ar
  72   35   73 1
  73   36   37 ar
  74   36   74 1
  75   37   38 1
  76   38   39 1
  77   38   75 1
  78   38   76 1
  79   39   40 1
  80   39   41 1
  81   40   77 1
  82   40   78 1
  83   40   79 1
  84   41   80 1
  85   41   81 1
  86   41   82 1

#	End of record

