#	Name: ASD03200054
#	Creating user name:	WinNT
#	Creation time:	15. 06. 2019 20:34

#	Modifying user name:	WinNT
#	Modification time:	15. 06. 2019 20:34

#	Program:	/corina/corina34_cracker 3.40 0067  02.08.2006

@<TRIPOS>MOLECULE
ASD03200054
  56   59    0    0    0
SMALL
NO_CHARGES


@<TRIPOS>ATOM
   1 C1             0.6528    -2.4272    -0.0357 C.3     
   2 N2             0.1858    -1.0934     0.3634 N.3     
   3 C3             0.6811    -0.7349     1.6985 C.3     
   4 C4             2.2108    -0.6917     1.6819 C.3     
   5 C5             2.7508    -2.0634     1.2680 C.3     
   6 C6             2.1816    -2.4345    -0.1042 C.3     
   7 C7            -1.2050    -1.0139     0.3086 C.ar    
   8 C8            -1.9579    -0.8489     1.4686 C.ar    
   9 C9            -3.3327    -0.7741     1.3725 C.ar    
  10 N10           -3.9373    -0.8570     0.2026 N.ar    
  11 C11           -3.2643    -1.0135    -0.9220 C.ar    
  12 C12           -1.8816    -1.0920    -0.9145 C.ar    
  13 N13           -1.1716    -1.2582    -2.1113 N.am    
  14 C14           -1.6964    -1.9966    -3.1092 C.2     
  15 C15           -0.9155    -2.2483    -4.3232 C.2     
  16 O16           -2.8195    -2.4544    -3.0020 O.2     
  17 C17           -1.4310    -2.9058    -5.4188 C.2     
  18 S18           -0.1690    -2.9926    -6.6453 S.3     
  19 C19            0.9393    -2.1382    -5.5780 C.2     
  20 N20            0.3506    -1.8553    -4.4611 N.2     
  21 C21            2.3369    -1.7896    -5.9112 C.ar    
  22 N22           -2.7111    -3.4085    -5.5351 N.pl3   
  23 C23            3.2000    -2.7621    -6.4182 C.ar    
  24 N24            2.7065    -0.3537     3.0228 N.3     
  25 C25            2.7971    -0.4851    -5.7256 C.ar    
  26 C26            4.1024    -0.1664    -6.0385 C.ar    
  27 C27            4.9546    -1.1365    -6.5353 C.ar    
  28 C28            4.5030    -2.4302    -6.7271 C.ar    
  29 C29            1.8701     0.5730    -5.1851 C.3     
  30 C30            2.7100    -4.1718    -6.6272 C.3     
  31 H31            0.3185    -3.1630     0.6956 H       
  32 H32            0.2442    -2.6770    -1.0149 H       
  33 H33            0.2932     0.2443     1.9790 H       
  34 H34            0.3467    -1.4787     2.4218 H       
  35 H35            2.5458     0.0616     0.9688 H       
  36 H36            3.8388    -2.0251     1.2128 H       
  37 H37            2.4485    -2.8105     2.0019 H       
  38 H38            2.5285    -3.4288    -0.3853 H       
  39 H39            2.5162    -1.7086    -0.8453 H       
  40 H40           -1.4722    -0.7806     2.4308 H       
  41 H41           -3.9224    -0.6461     2.2682 H       
  42 H42           -3.7976    -1.0770    -1.8590 H       
  43 H43           -0.3025    -0.8418    -2.2215 H       
  44 H44           -3.3385    -3.3120    -4.8016 H       
  45 H45           -2.9834    -3.8583    -6.3502 H       
  46 H46            3.7139    -0.3985     3.0578 H       
  47 H47            2.3747     0.5540     3.3128 H       
  48 H48            4.4597     0.8428    -5.8957 H       
  49 H49            5.9755    -0.8818    -6.7787 H       
  50 H50            5.1733    -3.1829    -7.1152 H       
  51 H51            1.9964     0.6493    -4.1051 H       
  52 H52            2.1047     1.5319    -5.6470 H       
  53 H53            0.8388     0.3029    -5.4121 H       
  54 H54            2.3806    -4.2927    -7.6592 H       
  55 H55            3.5190    -4.8722    -6.4196 H       
  56 H56            1.8760    -4.3701    -5.9540 H       
@<TRIPOS>BOND
   1    1    2 1
   2    1    6 1
   3    1   31 1
   4    1   32 1
   5    2    3 1
   6    2    7 1
   7    3    4 1
   8    3   33 1
   9    3   34 1
  10    4    5 1
  11    4   24 1
  12    4   35 1
  13    5    6 1
  14    5   36 1
  15    5   37 1
  16    6   38 1
  17    6   39 1
  18    7    8 ar
  19    7   12 ar
  20    8    9 ar
  21    8   40 1
  22    9   10 ar
  23    9   41 1
  24   10   11 ar
  25   11   12 ar
  26   11   42 1
  27   12   13 1
  28   13   14 am
  29   13   43 1
  30   14   15 1
  31   14   16 2
  32   15   17 2
  33   15   20 1
  34   17   18 1
  35   17   22 1
  36   18   19 1
  37   19   20 2
  38   19   21 1
  39   21   25 ar
  40   21   23 ar
  41   22   44 1
  42   22   45 1
  43   23   30 1
  44   23   28 ar
  45   24   46 1
  46   24   47 1
  47   25   26 ar
  48   25   29 1
  49   26   27 ar
  50   26   48 1
  51   27   28 ar
  52   27   49 1
  53   28   50 1
  54   29   51 1
  55   29   52 1
  56   29   53 1
  57   30   54 1
  58   30   55 1
  59   30   56 1

#	End of record

