#	Name: ASD03180091
#	Creating user name:	WinNT
#	Creation time:	15. 06. 2019 20:33

#	Modifying user name:	WinNT
#	Modification time:	15. 06. 2019 20:33

#	Program:	/corina/corina34_cracker 3.40 0067  02.08.2006

@<TRIPOS>MOLECULE
ASD03180091
  38   40    0    0    0
SMALL
NO_CHARGES


@<TRIPOS>ATOM
   1 C1            -0.0143     1.4196     0.2348 C.ar    
   2 C2            -1.2888    -0.1645     1.5065 C.ar    
   3 C3            -2.3845     0.0680     0.6950 C.ar    
   4 C4            -2.2949     0.9666    -0.3521 C.ar    
   5 C5            -1.1149     1.6468    -0.5815 C.ar    
   6 C6            -0.1046     0.5083     1.2796 C.ar    
   7 C7            -1.0219     2.6348    -1.7156 C.3     
   8 N8             1.1830     2.1019     0.0021 N.pl3   
   9 C9             2.3922     1.4302     0.0915 C.2     
  10 N10            3.5630     1.9818     0.0070 N.2     
  11 S11            2.5759    -0.3025     0.3451 S.3     
  12 C12            4.3285    -0.1262     0.3067 C.2     
  13 C13            4.6183     1.1750     0.1173 C.2     
  14 C14            6.0077     1.6735     0.0392 C.2     
  15 O15            7.1348     0.9352     0.1384 O.3     
  16 C16            8.1796     1.7668     0.0138 C.2     
  17 N17            7.7382     2.9809    -0.1571 N.2     
  18 C18            6.3962     2.9605    -0.1519 C.2     
  19 C19            5.4865     4.1496    -0.3236 C.3     
  20 C20            9.6304     1.3624     0.0640 C.3     
  21 C21           -3.6754    -0.6681     0.9457 C.3     
  22 H22           -1.3622    -0.8667     2.3238 H       
  23 H23           -3.1522     1.1455    -0.9841 H       
  24 H24            0.7507     0.3260     1.9134 H       
  25 H25           -1.3103     3.6240    -1.3603 H       
  26 H26            0.0025     2.6664    -2.0868 H       
  27 H27           -1.6906     2.3284    -2.5201 H       
  28 H28            1.1678     3.0456    -0.2221 H       
  29 H29            5.0472    -0.9245     0.4190 H       
  30 H30            5.2711     4.5861     0.6518 H       
  31 H31            5.9747     4.8926    -0.9543 H       
  32 H32            4.5557     3.8303    -0.7923 H       
  33 H33            9.9748     1.1194    -0.9412 H       
  34 H34           10.2235     2.1857     0.4621 H       
  35 H35            9.7423     0.4897     0.7073 H       
  36 H36           -4.2933    -0.0934     1.6357 H       
  37 H37           -4.2079    -0.7988     0.0036 H       
  38 H38           -3.4586    -1.6445     1.3790 H       
@<TRIPOS>BOND
   1    1    6 ar
   2    1    8 1
   3    1    5 ar
   4    2    3 ar
   5    2    6 ar
   6    2   22 1
   7    3    4 ar
   8    3   21 1
   9    4    5 ar
  10    4   23 1
  11    5    7 1
  12    6   24 1
  13    7   25 1
  14    7   26 1
  15    7   27 1
  16    8    9 1
  17    8   28 1
  18    9   11 1
  19    9   10 2
  20   10   13 1
  21   11   12 1
  22   12   13 2
  23   12   29 1
  24   13   14 1
  25   14   15 1
  26   14   18 2
  27   15   16 1
  28   16   17 2
  29   16   20 1
  30   17   18 1
  31   18   19 1
  32   19   30 1
  33   19   31 1
  34   19   32 1
  35   20   33 1
  36   20   34 1
  37   20   35 1
  38   21   36 1
  39   21   37 1
  40   21   38 1

#	End of record

