#	Name: ASD08780002
#	Creating user name:	WinNT
#	Creation time:	15. 06. 2019 21:19

#	Modifying user name:	WinNT
#	Modification time:	15. 06. 2019 21:19

#	Program:	/corina/corina34_cracker 3.40 0067  02.08.2006

@<TRIPOS>MOLECULE
ASD08780002
  40   42    0    0    0
SMALL
NO_CHARGES


@<TRIPOS>ATOM
   1 C1            -0.0136     1.4202     0.2468 C.ar    
   2 C2            -0.0985     0.5171     1.2962 C.ar    
   3 C3            -1.2832    -0.1537     1.5362 C.ar    
   4 C4            -2.3848     0.0729     0.7326 C.ar    
   5 C5            -2.3077     0.9720    -0.3157 C.ar    
   6 C6            -1.1263     1.6521    -0.5596 C.ar    
   7 O7            -1.0491     2.5363    -1.5900 O.3     
   8 C8            -2.2256     2.7151    -2.3811 C.3     
   9 N9             1.1849     2.1012     0.0020 N.pl3   
  10 C10            2.3941     1.4300     0.0915 C.2     
  11 S11            2.5785    -0.3028     0.3438 S.3     
  12 N12            3.5651     1.9805    -0.0033 N.2     
  13 C13            4.6202     1.1740     0.1081 C.2     
  14 C14            4.3310    -0.1256     0.3051 C.2     
  15 C15            6.0101     1.6713     0.0188 C.2     
  16 C16            6.3806     2.9513    -0.1783 C.2     
  17 N17            7.6780     3.1655    -0.2235 N.2     
  18 C18            8.4546     2.1347    -0.0754 C.2     
  19 S19            7.4696     0.6934     0.1593 S.3     
  20 C20            5.3763     4.0636    -0.3369 C.3     
  21 N21            9.8436     2.1652    -0.0938 N.am    
  22 C22           10.4897     3.3339    -0.2763 C.2     
  23 C23           11.9962     3.3669    -0.2962 C.3     
  24 O24            9.8586     4.3590    -0.4245 O.2     
  25 H25            0.7608     0.3379     1.9255 H       
  26 H26           -1.3481    -0.8569     2.3533 H       
  27 H27           -3.3081    -0.4537     0.9235 H       
  28 H28           -3.1702     1.1465    -0.9419 H       
  29 H29           -2.0281     3.4450    -3.1662 H       
  30 H30           -2.5082     1.7638    -2.8321 H       
  31 H31           -3.0379     3.0728    -1.7484 H       
  32 H32            1.1690     3.0429    -0.2302 H       
  33 H33            5.0500    -0.9235     0.4186 H       
  34 H34            5.1438     4.4854     0.6409 H       
  35 H35            5.7927     4.8405    -0.9781 H       
  36 H36            4.4658     3.6693    -0.7883 H       
  37 H37           10.3483     1.3454     0.0247 H       
  38 H38           12.3837     2.3590    -0.1481 H       
  39 H39           12.3385     3.7503    -1.2574 H       
  40 H40           12.3559     4.0155     0.5026 H       
@<TRIPOS>BOND
   1    1    2 ar
   2    1    9 1
   3    1    6 ar
   4    2    3 ar
   5    2   25 1
   6    3    4 ar
   7    3   26 1
   8    4    5 ar
   9    4   27 1
  10    5    6 ar
  11    5   28 1
  12    6    7 1
  13    7    8 1
  14    8   29 1
  15    8   30 1
  16    8   31 1
  17    9   10 1
  18    9   32 1
  19   10   11 1
  20   10   12 2
  21   11   14 1
  22   12   13 1
  23   13   14 2
  24   13   15 1
  25   14   33 1
  26   15   16 2
  27   15   19 1
  28   16   17 1
  29   16   20 1
  30   17   18 2
  31   18   19 1
  32   18   21 1
  33   20   34 1
  34   20   35 1
  35   20   36 1
  36   21   22 am
  37   21   37 1
  38   22   23 1
  39   22   24 2
  40   23   38 1
  41   23   39 1
  42   23   40 1

#	End of record

