#	Name: ASD01148732
#	Creating user name:	WinNT
#	Creation time:	15. 06. 2019 19:03

#	Modifying user name:	WinNT
#	Modification time:	15. 06. 2019 19:03

#	Program:	/corina/corina34_cracker 3.40 0067  02.08.2006

@<TRIPOS>MOLECULE
ASD01148732
  53   56    0    0    0
SMALL
NO_CHARGES


@<TRIPOS>ATOM
   1 C1            -0.4290     0.8202    -0.2854 C.ar    
   2 C2            -0.2639    -0.5443    -0.1331 C.ar    
   3 C3             1.0055    -1.0849    -0.0701 C.ar    
   4 C4             2.1164    -0.2569    -0.1599 C.ar    
   5 C5             1.9473     1.1128    -0.3129 C.ar    
   6 C6             0.6754     1.6475    -0.3752 C.ar    
   7 S7            -2.0501     1.5053    -0.3727 S.o2    
   8 O8            -1.9257     2.7445    -1.0570 O.2     
   9 O9            -2.9052     0.4582    -0.8105 O.2     
  10 N10           -2.5121     1.8701     1.1751 N.am    
  11 N11            3.4053    -0.8022    -0.0959 N.pl3   
  12 C12            3.9606    -1.6067    -1.0263 C.2     
  13 C13            5.2352    -1.9341    -0.6084 C.2     
  14 C14            5.4418    -1.2859     0.6378 C.2     
  15 C15            4.3074    -0.5974     0.9225 C.2     
  16 C16            6.1964    -2.7924    -1.3192 C.2     
  17 C17            7.5721    -2.9483    -0.8009 C.ar    
  18 C18            8.2928    -4.1148    -1.0646 C.ar    
  19 C19            9.5762    -4.2535    -0.5783 C.ar    
  20 C20           10.1495    -3.2401     0.1693 C.ar    
  21 C21            9.4408    -2.0815     0.4344 C.ar    
  22 C22            8.1586    -1.9274    -0.0503 C.ar    
  23 O23            5.8590    -3.3735    -2.3331 O.2     
  24 C24           11.5518    -3.3990     0.6977 C.3     
  25 C25            3.3028    -2.0686    -2.3010 C.3     
  26 C26            4.0785     0.2312     2.1259 C.ar    
  27 C27            2.7776     0.5229     2.5385 C.ar    
  28 C28            2.5703     1.2959     3.6620 C.ar    
  29 C29            3.6498     1.7824     4.3798 C.ar    
  30 C30            4.9428     1.4966     3.9751 C.ar    
  31 C31            5.1625     0.7195     2.8567 C.ar    
  32 Cl32           3.3811     2.7550     5.7925 Cl      
  33 H33           -1.1284    -1.1878    -0.0629 H       
  34 H34            1.1338    -2.1506     0.0493 H       
  35 H35            2.8095     1.7595    -0.3827 H       
  36 H36            0.5432     2.7127    -0.4941 H       
  37 H37           -3.1206     2.6076     1.3385 H       
  38 H38           -2.1742     1.3463     1.9183 H       
  39 H39            6.3349    -1.3297     1.2435 H       
  40 H40            7.8464    -4.9067    -1.6477 H       
  41 H41           10.1347    -5.1554    -0.7813 H       
  42 H42            9.8941    -1.2945     1.0189 H       
  43 H43            7.6081    -1.0210     0.1539 H       
  44 H44           12.2617    -3.0137    -0.0342 H       
  45 H45           11.6539    -2.8437     1.6301 H       
  46 H46           11.7542    -4.4545     0.8794 H       
  47 H47            3.5159    -1.3567    -3.0985 H       
  48 H48            3.6914    -3.0491    -2.5759 H       
  49 H49            2.2251    -2.1340    -2.1508 H       
  50 H50            1.9349     0.1445     1.9790 H       
  51 H51            1.5640     1.5223     3.9823 H       
  52 H52            5.7810     1.8794     4.5385 H       
  53 H53            6.1714     0.4933     2.5446 H       
@<TRIPOS>BOND
   1    1    2 ar
   2    1    6 ar
   3    1    7 1
   4    2    3 ar
   5    2   33 1
   6    3    4 ar
   7    3   34 1
   8    4    5 ar
   9    4   11 1
  10    5    6 ar
  11    5   35 1
  12    6   36 1
  13    7    8 2
  14    7    9 2
  15    7   10 am
  16   10   37 1
  17   10   38 1
  18   11   12 1
  19   11   15 1
  20   12   13 2
  21   12   25 1
  22   13   14 1
  23   13   16 1
  24   14   15 2
  25   14   39 1
  26   15   26 1
  27   16   17 1
  28   16   23 2
  29   17   18 ar
  30   17   22 ar
  31   18   19 ar
  32   18   40 1
  33   19   20 ar
  34   19   41 1
  35   20   21 ar
  36   20   24 1
  37   21   22 ar
  38   21   42 1
  39   22   43 1
  40   24   44 1
  41   24   45 1
  42   24   46 1
  43   25   47 1
  44   25   48 1
  45   25   49 1
  46   26   27 ar
  47   26   31 ar
  48   27   28 ar
  49   27   50 1
  50   28   29 ar
  51   28   51 1
  52   29   30 ar
  53   29   32 1
  54   30   31 ar
  55   30   52 1
  56   31   53 1

#	End of record

