#	Name: ASD04390011
#	Creating user name:	WinNT
#	Creation time:	15. 06. 2019 20:49

#	Modifying user name:	WinNT
#	Modification time:	15. 06. 2019 20:49

#	Program:	/corina/corina34_cracker 3.40 0067  02.08.2006

@<TRIPOS>MOLECULE
ASD04390011
  35   37    0    0    0
SMALL
NO_CHARGES


@<TRIPOS>ATOM
   1 C1            -0.1602     1.5406     0.0267 C.ar    
   2 C2            -0.1021     0.1543     0.0493 C.ar    
   3 C3             1.1220    -0.4853     0.0752 C.ar    
   4 C4             2.2901     0.2541     0.0792 C.ar    
   5 C5             2.2360     1.6376     0.0568 C.ar    
   6 C6             1.0116     2.2820     0.0303 C.ar    
   7 O7            -1.3639     2.1707    -0.0044 O.3     
   8 C8            -1.3744    -0.6534     0.0459 C.3     
   9 N9            -1.8980    -0.7341    -1.3199 N.pl3   
  10 C10           -3.0689    -1.4312    -1.5732 C.ar    
  11 C11           -3.6260    -1.4140    -2.8607 C.ar    
  12 C12           -4.8054    -2.1235    -3.0935 C.ar    
  13 C13           -5.3765    -2.8164    -2.0384 C.ar    
  14 C14           -4.7692    -2.7866    -0.7973 C.ar    
  15 N15           -3.6516    -2.1135    -0.6004 N.ar    
  16 C16           -2.9744    -0.6560    -3.9535 C.ar    
  17 N17           -2.7926    -1.2423    -5.1298 N.ar    
  18 C18           -2.2147    -0.5933    -6.1258 C.ar    
  19 C19           -1.7973     0.7147    -5.9296 C.ar    
  20 C20           -2.0026     1.2975    -4.6879 C.ar    
  21 N21           -2.5911     0.5953    -3.7351 N.ar    
  22 F22            3.3787     2.3584     0.0612 F       
  23 H23            1.1665    -1.5642     0.0927 H       
  24 H24            3.2461    -0.2479     0.1002 H       
  25 H25            0.9688     3.3610     0.0125 H       
  26 H26           -1.7279     2.3667     0.8697 H       
  27 H27           -1.1681    -1.6578     0.4159 H       
  28 H28           -2.1113    -0.1733     0.6898 H       
  29 H29           -1.4253    -0.2996    -2.0470 H       
  30 H30           -5.2618    -2.1317    -4.0723 H       
  31 H31           -6.2891    -3.3751    -2.1846 H       
  32 H32           -5.2150    -3.3270     0.0246 H       
  33 H33           -2.0691    -1.0759    -7.0810 H       
  34 H34           -1.3221     1.2674    -6.7265 H       
  35 H35           -1.6887     2.3142    -4.5029 H       
@<TRIPOS>BOND
   1    1    2 ar
   2    1    6 ar
   3    1    7 1
   4    2    3 ar
   5    2    8 1
   6    3    4 ar
   7    3   23 1
   8    4    5 ar
   9    4   24 1
  10    5    6 ar
  11    5   22 1
  12    6   25 1
  13    7   26 1
  14    8    9 1
  15    8   27 1
  16    8   28 1
  17    9   10 1
  18    9   29 1
  19   10   11 ar
  20   10   15 ar
  21   11   12 ar
  22   11   16 1
  23   12   13 ar
  24   12   30 1
  25   13   14 ar
  26   13   31 1
  27   14   15 ar
  28   14   32 1
  29   16   17 ar
  30   16   21 ar
  31   17   18 ar
  32   18   19 ar
  33   18   33 1
  34   19   20 ar
  35   19   34 1
  36   20   21 ar
  37   20   35 1

#	End of record

