#	Name: ASD00843841
#	Creating user name:	WinNT
#	Creation time:	15. 06. 2019 18:47

#	Modifying user name:	WinNT
#	Modification time:	15. 06. 2019 18:47

#	Program:	/corina/corina34_cracker 3.40 0067  02.08.2006

@<TRIPOS>MOLECULE
ASD00843841
  89   94    0    0    0
SMALL
NO_CHARGES


@<TRIPOS>ATOM
   1 N1            -0.0159     1.3183     0.0093 N.ar    
   2 C2             0.0021    -0.0041     0.0020 C.ar    
   3 C3             1.2069    -0.6955    -0.0132 C.ar    
   4 C4             2.3925     0.0180    -0.0207 C.ar    
   5 C5             2.3308     1.4049    -0.0127 C.ar    
   6 C6             1.0980     2.0259     0.0025 C.ar    
   7 C7             1.2224    -2.2024    -0.0209 C.3     
   8 C8             0.4764    -2.7346    -1.2259 C.2     
   9 O9             2.5879    -2.6961    -0.0089 O.3     
  10 C10            3.3819    -2.3225    -1.0300 C.2     
  11 N11            4.6605    -2.7459    -1.0791 N.am    
  12 O12            2.9459    -1.6036    -1.9072 O.2     
  13 C13            5.5392    -2.3467    -2.1869 C.3     
  14 C14            6.1437    -3.6063    -2.8153 C.3     
  15 C15            6.8374    -4.4311    -1.7286 C.3     
  16 C16            5.8105    -4.8604    -0.6782 C.3     
  17 C17            5.2039    -3.6105    -0.0227 C.3     
  18 C18            7.4721    -5.6727    -2.3583 C.3     
  19 C19            8.5010    -5.2447    -3.4084 C.3     
  20 C20            9.1757    -6.4886    -3.9910 C.3     
  21 N21            9.8325    -7.2405    -2.9141 N.3     
  22 C22            8.8575    -7.7026    -1.9180 C.3     
  23 C23            8.1733    -6.4949    -1.2735 C.3     
  24 C24           10.6069    -8.3659    -3.4543 C.3     
  25 O25            0.7568    -2.5406    -2.3898 O.2     
  26 N26           -0.5539    -3.4626    -0.7644 N.am    
  27 C27            0.4487    -2.7464     1.1585 C.ar    
  28 C28           -0.6011    -3.4915     0.6265 C.ar    
  29 C29            0.6132    -2.6250     2.5150 C.ar    
  30 C30           -0.2835    -3.2566     3.3842 C.ar    
  31 C31           -1.3412    -4.0072     2.8566 C.ar    
  32 C32           -1.4949    -4.1227     1.4917 C.ar    
  33 F33           -2.2122    -4.6208     3.6873 F       
  34 C34           -1.0164    -5.8557    -2.0426 C.ar    
  35 C35           -1.3471    -6.8956    -1.1940 C.ar    
  36 C36           -0.1973    -6.0864    -3.1320 C.ar    
  37 C37            0.2911    -7.3570    -3.3727 C.ar    
  38 C38           -0.0392    -8.3968    -2.5239 C.ar    
  39 C39           -0.8583    -8.1661    -1.4344 C.ar    
  40 H40            0.3424    -9.3894    -2.7119 H       
  41 H41           -1.9870    -6.7153    -0.3428 H       
  42 C42           11.3744    -9.0479    -2.3200 C.3     
  43 C43            9.6567    -9.3732    -4.1049 C.3     
  44 C44           -0.1204    -3.1366     4.8018 C.1     
  45 N45            0.0090    -3.0413     5.9263 N.1     
  46 O46           -1.1673    -0.6919     0.0099 O.3     
  47 C47           -2.3720     0.0766     0.0260 C.3     
  48 C48           -3.5777    -0.8652     0.0330 C.3     
  49 F49           -3.5507    -1.6659    -1.1140 F       
  50 F50           -3.5280    -1.6782     1.1704 F       
  51 S51           -1.6449    -4.2377    -1.7399 S.o2    
  52 O52           -2.8262    -4.4040    -0.9678 O.2     
  53 O53           -1.6212    -3.5580    -2.9876 O.2     
  54 H54            3.3442    -0.4925    -0.0322 H       
  55 H55            3.2375     1.9916    -0.0178 H       
  56 H56            1.0444     3.1046     0.0084 H       
  57 H57            4.9604    -1.8064    -2.9360 H       
  58 H58            6.3374    -1.7082    -1.8083 H       
  59 H59            5.3526    -4.2000    -3.2732 H       
  60 H60            6.8711    -3.3206    -3.5751 H       
  61 H61            7.6119    -3.8285    -1.2543 H       
  62 H62            5.0225    -5.4423    -1.1563 H       
  63 H63            6.3008    -5.4674     0.0830 H       
  64 H64            5.9762    -3.0775     0.5319 H       
  65 H65            4.4025    -3.9056     0.6546 H       
  66 H66            6.6983    -6.2770    -2.8317 H       
  67 H67            8.0004    -4.6952    -4.2056 H       
  68 H68            9.2527    -4.6074    -2.9428 H       
  69 H69            8.4254    -7.1188    -4.4686 H       
  70 H70            9.9190    -6.1867    -4.7288 H       
  71 H71            8.1087    -8.3270    -2.4053 H       
  72 H72            9.3698    -8.2824    -1.1502 H       
  73 H73            8.9198    -5.8773    -0.7743 H       
  74 H74            7.4386    -6.8386    -0.5454 H       
  75 H75           11.3117    -7.9974    -4.1997 H       
  76 H76            1.4328    -2.0439     2.9111 H       
  77 H77           -2.3125    -4.7030     1.0901 H       
  78 H78            0.0607    -5.2740    -3.7952 H       
  79 H79            0.9305    -7.5373    -4.2243 H       
  80 H80           -1.1166    -8.9785    -0.7714 H       
  81 H81           10.6697    -9.4164    -1.5746 H       
  82 H82           11.9490    -9.8829    -2.7208 H       
  83 H83           12.0514    -8.3303    -1.8565 H       
  84 H84            9.1098    -8.8873    -4.9130 H       
  85 H85           10.2313   -10.2082    -4.5057 H       
  86 H86            8.9519    -9.7417    -3.3595 H       
  87 H87           -2.3931     0.7004     0.9196 H       
  88 H88           -2.4108     0.7099    -0.8602 H       
  89 H89           -4.4966    -0.2790     0.0452 H       
@<TRIPOS>BOND
   1    1    2 ar
   2    1    6 ar
   3    2    3 ar
   4    2   46 1
   5    3    4 ar
   6    3    7 1
   7    4    5 ar
   8    4   54 1
   9    5    6 ar
  10    5   55 1
  11    6   56 1
  12    7    8 1
  13    7    9 1
  14    7   27 1
  15    8   25 2
  16    8   26 am
  17    9   10 1
  18   10   11 am
  19   10   12 2
  20   11   13 1
  21   11   17 1
  22   13   14 1
  23   13   57 1
  24   13   58 1
  25   14   15 1
  26   14   59 1
  27   14   60 1
  28   15   16 1
  29   15   18 1
  30   15   61 1
  31   16   17 1
  32   16   62 1
  33   16   63 1
  34   17   64 1
  35   17   65 1
  36   18   19 1
  37   18   23 1
  38   18   66 1
  39   19   20 1
  40   19   67 1
  41   19   68 1
  42   20   21 1
  43   20   69 1
  44   20   70 1
  45   21   22 1
  46   21   24 1
  47   22   23 1
  48   22   71 1
  49   22   72 1
  50   23   73 1
  51   23   74 1
  52   24   42 1
  53   24   43 1
  54   24   75 1
  55   26   51 am
  56   26   28 1
  57   27   28 ar
  58   27   29 ar
  59   28   32 ar
  60   29   30 ar
  61   29   76 1
  62   30   31 ar
  63   30   44 1
  64   31   32 ar
  65   31   33 1
  66   32   77 1
  67   34   35 ar
  68   34   36 ar
  69   34   51 1
  70   35   41 1
  71   35   39 ar
  72   36   37 ar
  73   36   78 1
  74   37   38 ar
  75   37   79 1
  76   38   39 ar
  77   38   40 1
  78   39   80 1
  79   42   81 1
  80   42   82 1
  81   42   83 1
  82   43   84 1
  83   43   85 1
  84   43   86 1
  85   44   45 3
  86   46   47 1
  87   47   48 1
  88   47   87 1
  89   47   88 1
  90   48   49 1
  91   48   50 1
  92   48   89 1
  93   51   52 2
  94   51   53 2

#	End of record

