#	Name: ASD01903094
#	Creating user name:	WinNT
#	Creation time:	15. 06. 2019 19:54

#	Modifying user name:	WinNT
#	Modification time:	15. 06. 2019 19:54

#	Program:	/corina/corina34_cracker 3.40 0067  02.08.2006

@<TRIPOS>MOLECULE
ASD01903094
  42   44    0    0    0
SMALL
NO_CHARGES


@<TRIPOS>ATOM
   1 C1            -0.0160     1.2943     0.0210 C.2     
   2 N2             0.0004    -0.0032     0.0040 N.2     
   3 C3            -1.1730    -0.6194     0.0260 C.2     
   4 C4            -2.2471     0.1862     0.0636 C.2     
   5 S5            -1.6842     1.8559     0.0782 S.3     
   6 C6            -1.2920    -2.0998     0.0098 C.2     
   7 N7             1.1051     2.1110     0.0028 N.pl3   
   8 C8            -2.2722    -2.8641     0.6776 C.2     
   9 N9            -2.0511    -4.1256     0.4264 N.2     
  10 N10           -0.9296    -4.2252    -0.4060 N.am    
  11 C11           -0.4783    -2.9643    -0.6571 C.2     
  12 C12            0.9588     3.4914    -0.0934 C.ar    
  13 N13           -0.2450     4.0126    -0.2729 N.ar    
  14 C14           -0.4273     5.3160    -0.3689 C.ar    
  15 C15            0.6394     6.1882    -0.2851 C.ar    
  16 C16            1.9188     5.6819    -0.0969 C.ar    
  17 C17            2.0780     4.3118     0.0057 C.ar    
  18 C18           -3.6859    -0.2611     0.0945 C.3     
  19 C19           -0.3936    -5.3674    -0.8798 C.2     
  20 O20            0.5860    -5.3269    -1.5974 O.2     
  21 N21           -0.9441    -6.5546    -0.5575 N.am    
  22 C22           -0.3615    -7.7962    -1.0725 C.3     
  23 C23            0.7796    -8.2425    -0.1562 C.3     
  24 C24           -1.4362    -8.8844    -1.1157 C.3     
  25 H25            1.9910     1.7198     0.0572 H       
  26 H26           -3.0691    -2.4721     1.2922 H       
  27 H27            0.3725    -2.6996    -1.2674 H       
  28 H28           -1.4240     5.7054    -0.5152 H       
  29 H29            0.4806     7.2534    -0.3654 H       
  30 H30            2.7698     6.3433    -0.0282 H       
  31 H31            3.0589     3.8842     0.1523 H       
  32 H32           -4.0067    -0.3819     1.1292 H       
  33 H33           -4.3096     0.4875    -0.3942 H       
  34 H34           -3.7821    -1.2122    -0.4292 H       
  35 H35           -1.7262    -6.5870     0.0155 H       
  36 H36            0.0247    -7.6268    -2.0776 H       
  37 H37            0.3934    -8.4120     0.8490 H       
  38 H38            1.2131    -9.1663    -0.5393 H       
  39 H39            1.5452    -7.4673    -0.1253 H       
  40 H40           -2.2491    -8.5664    -1.7685 H       
  41 H41           -1.0027    -9.8081    -1.4989 H       
  42 H42           -1.8224    -9.0538    -0.1106 H       
@<TRIPOS>BOND
   1    1    2 2
   2    1    7 1
   3    1    5 1
   4    2    3 1
   5    3    4 2
   6    3    6 1
   7    4    5 1
   8    4   18 1
   9    6    8 1
  10    6   11 2
  11    7   12 1
  12    7   25 1
  13    8    9 2
  14    8   26 1
  15    9   10 1
  16   10   11 1
  17   10   19 am
  18   11   27 1
  19   12   13 ar
  20   12   17 ar
  21   13   14 ar
  22   14   15 ar
  23   14   28 1
  24   15   16 ar
  25   15   29 1
  26   16   17 ar
  27   16   30 1
  28   17   31 1
  29   18   32 1
  30   18   33 1
  31   18   34 1
  32   19   20 2
  33   19   21 am
  34   21   22 1
  35   21   35 1
  36   22   23 1
  37   22   24 1
  38   22   36 1
  39   23   37 1
  40   23   38 1
  41   23   39 1
  42   24   40 1
  43   24   41 1
  44   24   42 1

#	End of record

