#	Name: ASD01910769
#	Creating user name:	WinNT
#	Creation time:	15. 06. 2019 19:56

#	Modifying user name:	WinNT
#	Modification time:	15. 06. 2019 19:56

#	Program:	/corina/corina34_cracker 3.40 0067  02.08.2006

@<TRIPOS>MOLECULE
ASD01910769
  53   56    0    0    0
SMALL
NO_CHARGES


@<TRIPOS>ATOM
   1 C1            12.4819    -1.9048     4.2714 C.ar    
   2 C2            13.1016    -2.0686     3.0398 C.ar    
   3 C3            12.3921    -1.7492     1.8960 C.ar    
   4 C4            11.0892    -1.2775     2.0178 C.ar    
   5 N5            10.5330    -1.1346     3.2110 N.ar    
   6 C6            11.1856    -1.4318     4.3186 C.ar    
   7 N7            10.3648    -0.9527     0.8767 N.3     
   8 C8             9.0193    -0.4771     1.2251 C.3     
   9 C9             8.3208     0.0390    -0.0375 C.3     
  10 N10            8.3616    -1.0181    -1.0593 N.am    
  11 C11            9.6586    -1.6408    -1.3649 C.3     
  12 C12           10.3043    -2.0908    -0.0501 C.3     
  13 C13            7.2404    -1.4055    -1.6989 C.2     
  14 C14            7.3210    -2.3785    -2.8064 C.ar    
  15 O15            6.1624    -0.9538    -1.3639 O.2     
  16 C16            6.3464    -3.3726    -2.9362 C.ar    
  17 C17            6.4169    -4.2835    -3.9682 C.ar    
  18 C18            7.4551    -4.2210    -4.8860 C.ar    
  19 C19            8.4397    -3.2267    -4.7662 C.ar    
  20 C20            8.3661    -2.3027    -3.7265 C.ar    
  21 C21            9.5129    -3.1602    -5.7120 C.1     
  22 C22           10.3926    -3.1057    -6.4874 C.1     
  23 C23           11.4658    -3.0393    -7.4333 C.ar    
  24 C24           12.4458    -2.0502    -7.3148 C.ar    
  25 C25           13.4767    -1.9928    -8.2292 C.ar    
  26 C26           13.5417    -2.9111    -9.2624 C.ar    
  27 C27           12.5745    -3.8930    -9.3864 C.ar    
  28 C28           11.5412    -3.9667    -8.4758 C.ar    
  29 O29            7.5197    -5.1206    -5.8990 O.3     
  30 C30            6.4853    -6.1046    -5.9598 C.3     
  31 H31           13.0068    -2.1493     5.1830 H       
  32 H32           14.1150    -2.4366     2.9763 H       
  33 H33           12.8438    -1.8641     0.9217 H       
  34 H34           10.6999    -1.3025     5.2744 H       
  35 H35            8.4420    -1.2982     1.6502 H       
  36 H36            9.0960     0.3297     1.9539 H       
  37 H37            7.2844     0.2862     0.1925 H       
  38 H38            8.8383     0.9247    -0.4061 H       
  39 H39            9.5066    -2.5042    -2.0126 H       
  40 H40           10.3046    -0.9166    -1.8611 H       
  41 H41           11.3131    -2.4543    -0.2461 H       
  42 H42            9.7092    -2.8894     0.3928 H       
  43 H43            5.5355    -3.4272    -2.2250 H       
  44 H44            5.6609    -5.0490    -4.0625 H       
  45 H45            9.1197    -1.5353    -3.6289 H       
  46 H46           12.3960    -1.3325    -6.5094 H       
  47 H47           14.2349    -1.2289    -8.1390 H       
  48 H48           14.3510    -2.8610    -9.9757 H       
  49 H49           12.6313    -4.6059   -10.1956 H       
  50 H50           10.7870    -4.7336    -8.5738 H       
  51 H51            6.6562    -6.7592    -6.8143 H       
  52 H52            6.4907    -6.6946    -5.0433 H       
  53 H53            5.5197    -5.6105    -6.0680 H       
@<TRIPOS>BOND
   1    1    2 ar
   2    1    6 ar
   3    1   31 1
   4    2    3 ar
   5    2   32 1
   6    3    4 ar
   7    3   33 1
   8    4    5 ar
   9    4    7 1
  10    5    6 ar
  11    6   34 1
  12    7    8 1
  13    7   12 1
  14    8    9 1
  15    8   35 1
  16    8   36 1
  17    9   10 1
  18    9   37 1
  19    9   38 1
  20   10   11 1
  21   10   13 am
  22   11   12 1
  23   11   39 1
  24   11   40 1
  25   12   41 1
  26   12   42 1
  27   13   14 1
  28   13   15 2
  29   14   16 ar
  30   14   20 ar
  31   16   17 ar
  32   16   43 1
  33   17   18 ar
  34   17   44 1
  35   18   19 ar
  36   18   29 1
  37   19   20 ar
  38   19   21 1
  39   20   45 1
  40   21   22 3
  41   22   23 1
  42   23   24 ar
  43   23   28 ar
  44   24   25 ar
  45   24   46 1
  46   25   26 ar
  47   25   47 1
  48   26   27 ar
  49   26   48 1
  50   27   28 ar
  51   27   49 1
  52   28   50 1
  53   29   30 1
  54   30   51 1
  55   30   52 1
  56   30   53 1

#	End of record

