#	Name: ASD01908002
#	Creating user name:	WinNT
#	Creation time:	15. 06. 2019 19:54

#	Modifying user name:	WinNT
#	Modification time:	15. 06. 2019 19:54

#	Program:	/corina/corina34_cracker 3.40 0067  02.08.2006

@<TRIPOS>MOLECULE
ASD01908002
  38   39    0    0    0
SMALL
NO_CHARGES


@<TRIPOS>ATOM
   1 N1            -0.0169     1.3951     0.0097 N.pl3   
   2 N2             0.0021    -0.0041     0.0020 N.2     
   3 C3             1.2415    -0.4101    -0.0120 C.2     
   4 C4             2.0753     0.7311    -0.0138 C.2     
   5 C5             1.2499     1.8386    -0.0000 C.2     
   6 C6             3.5481     0.7382    -0.0271 C.2     
   7 O7             4.1607    -0.3113    -0.0379 O.2     
   8 O8             4.2163     1.9084    -0.0273 O.3     
   9 C9             1.7035    -1.8445    -0.0237 C.3     
  10 F10            0.5947    -2.6907    -0.1327 F       
  11 F11            2.5565    -2.0509    -1.1131 F       
  12 F12            2.3880    -2.1236     1.1640 F       
  13 C13           -1.2174     2.2346     0.0202 C.3     
  14 C14           -2.1021     1.8605    -1.1411 C.ar    
  15 C15           -3.0662     0.8815    -0.9869 C.ar    
  16 C16           -3.8784     0.5368    -2.0498 C.ar    
  17 C17           -3.7262     1.1739    -3.2728 C.ar    
  18 C18           -2.7581     2.1559    -3.4249 C.ar    
  19 C19           -1.9522     2.5010    -2.3573 C.ar    
  20 O20           -4.5237     0.8362    -4.3201 O.3     
  21 C21           -4.3106     1.5336    -5.5490 C.3     
  22 C22            5.6666     1.8394    -0.0408 C.3     
  23 C23            6.2446     3.2560    -0.0389 C.3     
  24 H24            1.5658     2.8713     0.0025 H       
  25 H25           -1.7593     2.0822     0.9536 H       
  26 H26           -0.9290     3.2822    -0.0656 H       
  27 H27           -3.1841     0.3855    -0.0347 H       
  28 H28           -4.6310    -0.2283    -1.9290 H       
  29 H29           -2.6376     2.6533    -4.3759 H       
  30 H30           -1.2016     3.2687    -2.4738 H       
  31 H31           -4.4680     2.6009    -5.3931 H       
  32 H32           -3.2898     1.3632    -5.8912 H       
  33 H33           -5.0113     1.1689    -6.3000 H       
  34 H34            6.0131     1.3044     0.8434 H       
  35 H35            5.9970     1.3133    -0.9364 H       
  36 H36            5.8981     3.7910    -0.9231 H       
  37 H37            5.9142     3.7820     0.8567 H       
  38 H38            7.3334     3.2042    -0.0490 H       
@<TRIPOS>BOND
   1    1    2 1
   2    1    5 1
   3    1   13 1
   4    2    3 2
   5    3    4 1
   6    3    9 1
   7    4    5 2
   8    4    6 1
   9    5   24 1
  10    6    7 2
  11    6    8 1
  12    8   22 1
  13    9   10 1
  14    9   11 1
  15    9   12 1
  16   13   14 1
  17   13   25 1
  18   13   26 1
  19   14   15 ar
  20   14   19 ar
  21   15   16 ar
  22   15   27 1
  23   16   17 ar
  24   16   28 1
  25   17   18 ar
  26   17   20 1
  27   18   19 ar
  28   18   29 1
  29   19   30 1
  30   20   21 1
  31   21   31 1
  32   21   32 1
  33   21   33 1
  34   22   23 1
  35   22   34 1
  36   22   35 1
  37   23   36 1
  38   23   37 1
  39   23   38 1

#	End of record

