#	Name: ASD03540368
#	Creating user name:	WinNT
#	Creation time:	15. 06. 2019 20:43

#	Modifying user name:	WinNT
#	Modification time:	15. 06. 2019 20:43

#	Program:	/corina/corina34_cracker 3.40 0067  02.08.2006

@<TRIPOS>MOLECULE
ASD03540368
  56   59    0    0    0
SMALL
NO_CHARGES


@<TRIPOS>ATOM
   1 O1            -0.0164     1.3557     0.0095 O.3     
   2 C2             0.0021    -0.0041     0.0020 C.ar    
   3 C3             1.2105    -0.6820    -0.0132 C.ar    
   4 C4             1.2274    -2.0643    -0.0208 C.ar    
   5 C5             0.0406    -2.7733    -0.0133 C.ar    
   6 C6            -1.1684    -2.1031     0.0018 C.ar    
   7 C7            -1.1925    -0.7177     0.0153 C.ar    
   8 C8             1.2479     2.0217     0.0010 C.3     
   9 C9             0.0648    -4.2801    -0.0222 C.3     
  10 N10            0.0861    -4.7763     1.3561 N.am    
  11 C11            0.1099    -6.1026     1.5945 C.2     
  12 O12            0.1136    -6.8872     0.6658 O.2     
  13 N13            0.1944    -7.9931     6.9038 N.am    
  14 C14            0.2185    -9.3152     7.1428 C.2     
  15 N15            0.2230   -10.2327     6.1632 N.am    
  16 C16            0.2032    -9.8683     4.8626 C.2     
  17 C17            0.1763    -8.4294     4.5417 C.ar    
  18 C18            0.1559    -7.9749     3.2292 C.ar    
  19 C19            0.1313    -6.6026     2.9836 C.ar    
  20 C20            0.1275    -5.6981     4.0526 C.ar    
  21 C21            0.1481    -6.1455     5.3434 C.ar    
  22 C22            0.1727    -7.5090     5.6074 C.ar    
  23 O23            0.2079   -10.7046     3.9800 O.2     
  24 O24            0.2374    -9.6970     8.2968 O.2     
  25 C25            0.1849    -7.0538     8.0280 C.3     
  26 C26            0.2504   -11.6556     6.5109 C.3     
  27 C27           -1.1608   -12.1670     6.6456 C.ar    
  28 C28           -1.8160   -12.6859     5.5445 C.ar    
  29 C29           -3.1104   -13.1549     5.6681 C.ar    
  30 C30           -3.7495   -13.1056     6.8928 C.ar    
  31 C31           -3.0940   -12.5875     7.9941 C.ar    
  32 C32           -1.7980   -12.1224     7.8715 C.ar    
  33 O33           -2.3809    -0.0569     0.0359 O.3     
  34 H34            2.1390    -0.1305    -0.0194 H       
  35 H35            2.1699    -2.5915    -0.0330 H       
  36 H36           -2.0942    -2.6593     0.0076 H       
  37 H37            1.8173     1.7317     0.8840 H       
  38 H38            1.8003     1.7413    -0.8958 H       
  39 H39            1.0905     3.1003     0.0083 H       
  40 H40           -0.8241    -4.6548    -0.5296 H       
  41 H41            0.9555    -4.6260    -0.5467 H       
  42 H42            0.0832    -4.1503     2.0970 H       
  43 H43            0.1594    -8.6766     2.4083 H       
  44 H44            0.1084    -4.6365     3.8548 H       
  45 H45            0.1456    -5.4381     6.1594 H       
  46 H46            0.2000    -7.6093     8.9657 H       
  47 H47            1.0637    -6.4113     7.9721 H       
  48 H48           -0.7160    -6.4419     7.9826 H       
  49 H49            0.7649   -12.2113     5.7271 H       
  50 H50            0.7768   -11.7886     7.4561 H       
  51 H51           -1.3167   -12.7245     4.5877 H       
  52 H52           -3.6225   -13.5597     4.8077 H       
  53 H53           -4.7611   -13.4714     6.9892 H       
  54 H54           -3.5935   -12.5486     8.9509 H       
  55 H55           -1.2846   -11.7211     8.7327 H       
  56 H56           -2.7373     0.1389    -0.8415 H       
@<TRIPOS>BOND
   1    1    2 1
   2    1    8 1
   3    2    3 ar
   4    2    7 ar
   5    3    4 ar
   6    3   34 1
   7    4    5 ar
   8    4   35 1
   9    5    6 ar
  10    5    9 1
  11    6    7 ar
  12    6   36 1
  13    7   33 1
  14    8   37 1
  15    8   38 1
  16    8   39 1
  17    9   10 1
  18    9   40 1
  19    9   41 1
  20   10   11 am
  21   10   42 1
  22   11   12 2
  23   11   19 1
  24   13   14 am
  25   13   22 1
  26   13   25 1
  27   14   15 am
  28   14   24 2
  29   15   16 am
  30   15   26 1
  31   16   17 1
  32   16   23 2
  33   17   18 ar
  34   17   22 ar
  35   18   19 ar
  36   18   43 1
  37   19   20 ar
  38   20   21 ar
  39   20   44 1
  40   21   22 ar
  41   21   45 1
  42   25   46 1
  43   25   47 1
  44   25   48 1
  45   26   27 1
  46   26   49 1
  47   26   50 1
  48   27   28 ar
  49   27   32 ar
  50   28   29 ar
  51   28   51 1
  52   29   30 ar
  53   29   52 1
  54   30   31 ar
  55   30   53 1
  56   31   32 ar
  57   31   54 1
  58   32   55 1
  59   33   56 1

#	End of record

