#	Name: ASD01890252
#	Creating user name:	WinNT
#	Creation time:	15. 06. 2019 19:50

#	Modifying user name:	WinNT
#	Modification time:	15. 06. 2019 19:50

#	Program:	/corina/corina34_cracker 3.40 0067  02.08.2006

@<TRIPOS>MOLECULE
ASD01890252
  41   42    0    0    0
SMALL
NO_CHARGES


@<TRIPOS>ATOM
   1 C1            -0.0519     1.4399    -0.2131 C.2     
   2 C2            -0.0119    -0.0191    -0.1232 C.2     
   3 C3             1.1740    -0.6622    -0.1145 C.2     
   4 C4             2.4493     0.1057    -0.3495 C.3     
   5 C5             3.0808     0.4693     0.9958 C.3     
   6 O6             0.9804     2.0809    -0.1612 O.2     
   7 O7            -1.2333     2.0746    -0.3593 O.3     
   8 C8             1.2224    -2.1136     0.1243 C.ar    
   9 C9             0.6466    -2.9967    -0.7947 C.ar    
  10 C10            0.6964    -4.3552    -0.5640 C.ar    
  11 C11            1.3138    -4.8455     0.5735 C.ar    
  12 C12            1.8855    -3.9780     1.4880 C.ar    
  13 C13            1.8494    -2.6172     1.2685 C.ar    
  14 C14            4.3561     1.2372     0.7609 C.ar    
  15 C15            4.3127     2.6059     0.5616 C.ar    
  16 C16            5.4832     3.3105     0.3460 C.ar    
  17 C17            6.6968     2.6463     0.3298 C.ar    
  18 C18            6.7389     1.2780     0.5292 C.ar    
  19 C19            5.5691     0.5752     0.7502 C.ar    
  20 Cl20           8.1664     3.5298     0.0587 Cl      
  21 Cl21           2.7894     3.4383     0.5815 Cl      
  22 C22           -1.1979     3.5009    -0.4404 C.3     
  23 C23           -2.6213     4.0380    -0.6031 C.3     
  24 H24           -0.9318    -0.5818    -0.0636 H       
  25 H25            3.1434    -0.5093    -0.9223 H       
  26 H26            2.2276     1.0170    -0.9049 H       
  27 H27            2.3867     1.0842     1.5687 H       
  28 H28            3.3025    -0.4420     1.5513 H       
  29 H29            0.1639    -2.6156    -1.6825 H       
  30 H30            0.2523    -5.0385    -1.2727 H       
  31 H31            1.3493    -5.9106     0.7488 H       
  32 H32            2.3649    -4.3682     2.3736 H       
  33 H33            2.2999    -1.9417     1.9807 H       
  34 H34            5.4498     4.3786     0.1900 H       
  35 H35            7.6861     0.7594     0.5162 H       
  36 H36            5.6029    -0.4923     0.9106 H       
  37 H37           -0.7588     3.9058     0.4713 H       
  38 H38           -0.5960     3.8012    -1.2981 H       
  39 H39           -2.5942     5.1259    -0.6649 H       
  40 H40           -3.0604     3.6331    -1.5148 H       
  41 H41           -3.2232     3.7377     0.2546 H       
@<TRIPOS>BOND
   1    1    2 1
   2    1    6 2
   3    1    7 1
   4    2    3 2
   5    2   24 1
   6    3    4 1
   7    3    8 1
   8    4    5 1
   9    4   25 1
  10    4   26 1
  11    5   14 1
  12    5   27 1
  13    5   28 1
  14    7   22 1
  15    8    9 ar
  16    8   13 ar
  17    9   10 ar
  18    9   29 1
  19   10   11 ar
  20   10   30 1
  21   11   12 ar
  22   11   31 1
  23   12   13 ar
  24   12   32 1
  25   13   33 1
  26   14   15 ar
  27   14   19 ar
  28   15   16 ar
  29   15   21 1
  30   16   17 ar
  31   16   34 1
  32   17   18 ar
  33   17   20 1
  34   18   19 ar
  35   18   35 1
  36   19   36 1
  37   22   23 1
  38   22   37 1
  39   22   38 1
  40   23   39 1
  41   23   40 1
  42   23   41 1

#	End of record

