#	Name: ASD01890166
#	Creating user name:	WinNT
#	Creation time:	15. 06. 2019 19:50

#	Modifying user name:	WinNT
#	Modification time:	15. 06. 2019 19:50

#	Program:	/corina/corina34_cracker 3.40 0067  02.08.2006

@<TRIPOS>MOLECULE
ASD01890166
  32   33    0    0    0
SMALL
NO_CHARGES


@<TRIPOS>ATOM
   1 C1            -0.0178     1.4582     0.0101 C.2     
   2 C2             0.0021    -0.0041     0.0020 C.2     
   3 C3             1.1808    -0.6634    -0.0128 C.2     
   4 O4             1.0283     2.0813     0.0034 O.2     
   5 C5            -1.3066     2.1791     0.0201 C.ar    
   6 C6            -1.3277     3.5766     0.0278 C.ar    
   7 C7            -2.5315     4.2450     0.0366 C.ar    
   8 C8            -3.7248     3.5318     0.0384 C.ar    
   9 C9            -3.7081     2.1417     0.0312 C.ar    
  10 C10           -2.5086     1.4658     0.0161 C.ar    
  11 O11           -4.9092     4.1943     0.0476 O.3     
  12 C12           -6.0969     3.3998     0.0489 C.3     
  13 C13            1.2008    -2.1340    -0.0209 C.ar    
  14 C14            2.4199    -2.8204    -0.0362 C.ar    
  15 C15            2.4308    -4.1985    -0.0437 C.ar    
  16 C16            1.2383    -4.9042    -0.0367 C.ar    
  17 C17            0.0272    -4.2312    -0.0219 C.ar    
  18 C18            0.0007    -2.8534    -0.0075 C.ar    
  19 Cl19           1.2619    -6.6400    -0.0468 Cl      
  20 H20           -0.9258    -0.5567     0.0079 H       
  21 H21            2.1087    -0.1107    -0.0187 H       
  22 H22           -0.4012     4.1314     0.0271 H       
  23 H23           -2.5487     5.3249     0.0426 H       
  24 H24           -4.6372     1.5912     0.0334 H       
  25 H25           -2.4965     0.3859     0.0060 H       
  26 H26           -6.1091     2.7659     0.9355 H       
  27 H27           -6.9703     4.0519     0.0566 H       
  28 H28           -6.1175     2.7755    -0.8444 H       
  29 H29            3.3501    -2.2717    -0.0424 H       
  30 H30            3.3710    -4.7298    -0.0556 H       
  31 H31           -0.8983    -4.7879    -0.0172 H       
  32 H32           -0.9440    -2.3302     0.0092 H       
@<TRIPOS>BOND
   1    1    2 1
   2    1    4 2
   3    1    5 1
   4    2    3 2
   5    2   20 1
   6    3   13 1
   7    3   21 1
   8    5    6 ar
   9    5   10 ar
  10    6    7 ar
  11    6   22 1
  12    7    8 ar
  13    7   23 1
  14    8    9 ar
  15    8   11 1
  16    9   10 ar
  17    9   24 1
  18   10   25 1
  19   11   12 1
  20   12   26 1
  21   12   27 1
  22   12   28 1
  23   13   14 ar
  24   13   18 ar
  25   14   15 ar
  26   14   29 1
  27   15   16 ar
  28   15   30 1
  29   16   17 ar
  30   16   19 1
  31   17   18 ar
  32   17   31 1
  33   18   32 1

#	End of record

