#	Name: ASD01870572
#	Creating user name:	WinNT
#	Creation time:	15. 06. 2019 19:39

#	Modifying user name:	WinNT
#	Modification time:	15. 06. 2019 19:39

#	Program:	/corina/corina34_cracker 3.40 0067  02.08.2006

@<TRIPOS>MOLECULE
ASD01870572
  43   46    0    0    0
SMALL
NO_CHARGES


@<TRIPOS>ATOM
   1 C1            -0.0107     1.3947     0.0268 C.ar    
   2 C2             0.0041     0.0063     0.0173 C.ar    
   3 C3             1.2072    -0.6715    -0.0031 C.ar    
   4 C4             2.4025     0.0350    -0.0140 C.ar    
   5 C5             2.3888     1.4240    -0.0049 C.ar    
   6 C6             1.1861     2.1024     0.0155 C.ar    
   7 N7             3.6221    -0.6529    -0.0337 N.am    
   8 C8             4.6715    -0.1450    -0.7100 C.2     
   9 C9             5.9797    -0.8029    -0.6353 C.2     
  10 O10            6.2666    -1.9198     0.0650 O.3     
  11 C11            7.1199    -0.3959    -1.2672 C.2     
  12 C12            8.1241    -1.3122    -0.9175 C.2     
  13 C13            7.5592    -2.2289    -0.1010 C.2     
  14 C14            7.2707     0.8044    -2.1659 C.3     
  15 O15            4.5331     0.8598    -1.3828 O.2     
  16 Cl16           1.1684     3.8383     0.0269 Cl      
  17 N17           -1.2300     2.0816     0.0421 N.pl3   
  18 C18           -3.3850     2.1693     1.1563 C.3     
  19 O19           -3.8834     2.9300     0.0562 O.3     
  20 C20           -1.8759     2.4410    -1.1512 C.ar    
  21 C21           -1.8830     2.4470     1.3109 C.3     
  22 C22           -3.2040     2.8601    -1.1190 C.ar    
  23 C23           -3.8372     3.2156    -2.2998 C.ar    
  24 C24           -3.1529     3.1501    -3.4996 C.ar    
  25 C25           -1.8360     2.7313    -3.5295 C.ar    
  26 C26           -1.1944     2.3784    -2.3561 C.ar    
  27 H27           -0.9253    -0.5437     0.0261 H       
  28 H28            1.2183    -1.7514    -0.0102 H       
  29 H29            3.3187     1.9733    -0.0134 H       
  30 H30            3.7117    -1.4950     0.4394 H       
  31 H31            9.1537    -1.2907    -1.2428 H       
  32 H32            8.0661    -3.0729     0.3430 H       
  33 H33            7.5515     1.6721    -1.5690 H       
  34 H34            8.0447     0.6078    -2.9077 H       
  35 H35            6.3250     1.0013    -2.6708 H       
  36 H36           -3.9026     2.4647     2.0689 H       
  37 H37           -3.5468     1.1077     0.9694 H       
  38 H38           -1.4770     1.8437     2.1229 H       
  39 H39           -1.7218     3.5048     1.5186 H       
  40 H40           -4.8660     3.5437    -2.2826 H       
  41 H41           -3.6496     3.4278    -4.4176 H       
  42 H42           -1.3063     2.6831    -4.4694 H       
  43 H43           -0.1643     2.0548    -2.3789 H       
@<TRIPOS>BOND
   1    1    2 ar
   2    1    6 ar
   3    1   17 1
   4    2    3 ar
   5    2   27 1
   6    3    4 ar
   7    3   28 1
   8    4    5 ar
   9    4    7 1
  10    5    6 ar
  11    5   29 1
  12    6   16 1
  13    7    8 am
  14    7   30 1
  15    8    9 1
  16    8   15 2
  17    9   11 2
  18    9   10 1
  19   10   13 1
  20   11   12 1
  21   11   14 1
  22   12   13 2
  23   12   31 1
  24   13   32 1
  25   14   33 1
  26   14   34 1
  27   14   35 1
  28   17   21 1
  29   17   20 1
  30   18   19 1
  31   18   21 1
  32   18   36 1
  33   18   37 1
  34   19   22 1
  35   20   26 ar
  36   20   22 ar
  37   21   38 1
  38   21   39 1
  39   22   23 ar
  40   23   24 ar
  41   23   40 1
  42   24   25 ar
  43   24   41 1
  44   25   26 ar
  45   25   42 1
  46   26   43 1

#	End of record

