#	Name: ASD02038783
#	Creating user name:	WinNT
#	Creation time:	15. 06. 2019 20:17

#	Modifying user name:	WinNT
#	Modification time:	15. 06. 2019 20:17

#	Program:	/corina/corina34_cracker 3.40 0067  02.08.2006

@<TRIPOS>MOLECULE
ASD02038783
  43   45    0    0    0
SMALL
NO_CHARGES


@<TRIPOS>ATOM
   1 C1            -1.2777    -0.8474     0.4641 C.2     
   2 C2            -0.0603    -0.0340     0.3009 C.2     
   3 N3             1.1370    -0.6350     0.1536 N.am    
   4 C4             1.2417    -2.0930     0.2512 C.3     
   5 C5             1.2140    -2.6923    -1.1312 C.ar    
   6 C6             2.3338     0.1697    -0.1042 C.3     
   7 O7            -0.1357     1.1799     0.2992 O.2     
   8 N8            -1.3387    -2.2033     0.4951 N.2     
   9 C9            -2.5791    -2.5654     0.6532 C.2     
  10 N10           -3.3578    -1.4548     0.7292 N.pl3   
  11 C11           -2.5484    -0.3753     0.6174 C.2     
  12 C12            2.3974    -3.0148    -1.7686 C.ar    
  13 C13            2.1219     1.0138    -1.3648 C.3     
  14 C14            3.3450     1.9086    -1.5817 C.3     
  15 O15            3.5452     2.7275    -0.4278 O.3     
  16 C16            3.7952     1.9933     0.7724 C.3     
  17 C17            2.5902     1.1018     1.0840 C.3     
  18 C18           -4.8118    -1.4297     0.9068 C.3     
  19 C19            0.0048    -2.9247    -1.7597 C.ar    
  20 C20           -0.0206    -3.4744    -3.0278 C.ar    
  21 C21            1.1631    -3.7913    -3.6676 C.ar    
  22 C22            2.3720    -3.5645    -3.0367 C.ar    
  23 H23            2.1775    -2.3579     0.7433 H       
  24 H24            0.4039    -2.4794     0.8316 H       
  25 H25            3.1917    -0.4877    -0.2454 H       
  26 H26           -2.9321    -3.5842     0.7138 H       
  27 H27           -2.8516     0.6610     0.6382 H       
  28 H28            3.3419    -2.8370    -1.2760 H       
  29 H29            1.9936     0.3573    -2.2254 H       
  30 H30            1.2339     1.6339    -1.2429 H       
  31 H31            4.2258     1.2874    -1.7438 H       
  32 H32            3.1816     2.5424    -2.4533 H       
  33 H33            4.6819     1.3731     0.6411 H       
  34 H34            3.9561     2.6881     1.5967 H       
  35 H35            1.7116     1.7237     1.2553 H       
  36 H36            2.7968     0.5083     1.9746 H       
  37 H37           -5.0475    -1.4054     1.9707 H       
  38 H38           -5.2216    -0.5429     0.4234 H       
  39 H39           -5.2480    -2.3223     0.4583 H       
  40 H40           -0.9199    -2.6771    -1.2598 H       
  41 H41           -0.9653    -3.6566    -3.5185 H       
  42 H42            1.1432    -4.2211    -4.6582 H       
  43 H43            3.2968    -3.8121    -3.5366 H       
@<TRIPOS>BOND
   1    1    2 1
   2    1    8 1
   3    1   11 2
   4    2    3 am
   5    2    7 2
   6    3    4 1
   7    3    6 1
   8    4    5 1
   9    4   23 1
  10    4   24 1
  11    5   12 ar
  12    5   19 ar
  13    6   13 1
  14    6   17 1
  15    6   25 1
  16    8    9 2
  17    9   10 1
  18    9   26 1
  19   10   11 1
  20   10   18 1
  21   11   27 1
  22   12   22 ar
  23   12   28 1
  24   13   14 1
  25   13   29 1
  26   13   30 1
  27   14   15 1
  28   14   31 1
  29   14   32 1
  30   15   16 1
  31   16   17 1
  32   16   33 1
  33   16   34 1
  34   17   35 1
  35   17   36 1
  36   18   37 1
  37   18   38 1
  38   18   39 1
  39   19   20 ar
  40   19   40 1
  41   20   21 ar
  42   20   41 1
  43   21   22 ar
  44   21   42 1
  45   22   43 1

#	End of record

