#	Name: ASD01001213
#	Creating user name:	WinNT
#	Creation time:	15. 06. 2019 18:55

#	Modifying user name:	WinNT
#	Modification time:	15. 06. 2019 18:55

#	Program:	/corina/corina34_cracker 3.40 0067  02.08.2006

@<TRIPOS>MOLECULE
ASD01001213
  51   54    0    0    0
SMALL
NO_CHARGES


@<TRIPOS>ATOM
   1 C1            -0.0184     1.5078     0.0103 C.3     
   2 C2             0.0021    -0.0041     0.0020 C.ar    
   3 C3            -0.7491     1.9986    -1.2382 C.3     
   4 C4            -0.2419    -0.7302    -1.1489 C.ar    
   5 C5             0.2767    -0.6590     1.1918 C.ar    
   6 C6            -0.1694     1.2731    -2.4534 C.3     
   7 C7            -0.6119     3.5081    -1.3948 C.3     
   8 C8            -0.1969    -2.1269    -1.0976 C.ar    
   9 N9            -0.5473    -0.1403    -2.3773 N.3     
  10 C10           -0.7254     1.8782    -3.7167 C.ar    
  11 C11            0.8681     3.9002    -1.3652 C.3     
  12 C12            0.0800    -2.7738     0.0893 C.ar    
  13 C13            0.3162    -2.0396     1.2383 C.ar    
  14 C14            1.4835     3.3882    -0.0587 C.3     
  15 C15            2.9696     3.7495    -0.0166 C.3     
  16 N16            3.5577     3.2578     1.2366 N.3     
  17 O17            1.3348     1.9701    -0.0001 O.3     
  18 C18            0.0276     2.7858    -4.4379 C.ar    
  19 C19           -0.4824     3.3409    -5.5966 C.ar    
  20 C20           -1.7452     2.9880    -6.0344 C.ar    
  21 C21           -2.4978     2.0796    -5.3137 C.ar    
  22 C22           -1.9861     1.5213    -4.1573 C.ar    
  23 Cl23           0.6606    -2.8506     2.7341 Cl      
  24 C24            4.9873     3.5874     1.3121 C.3     
  25 F25           -0.4266    -2.8474    -2.2171 F       
  26 C26            5.5633     3.0604     2.6279 C.3     
  27 O27            5.5035     1.6327     2.6362 O.3     
  28 H28           -0.5214     1.8636     0.9095 H       
  29 H29           -1.8057     1.7446    -1.1541 H       
  30 H30            0.4615    -0.0867     2.0888 H       
  31 H31            0.9169     1.3622    -2.4491 H       
  32 H32           -1.0492     3.8151    -2.3448 H       
  33 H33           -1.1350     4.0061    -0.5784 H       
  34 H34           -0.1445    -0.6639    -3.1400 H       
  35 H35            1.3831     3.4494    -2.2136 H       
  36 H36            0.9602     4.9853    -1.4125 H       
  37 H37            0.1132    -3.8528     0.1214 H       
  38 H38            0.9728     3.8453     0.7888 H       
  39 H39            3.4797     3.2888    -0.8626 H       
  40 H40            3.0820     4.8323    -0.0704 H       
  41 H41            3.0603     3.6203     2.0361 H       
  42 H42            1.0142     3.0615    -4.0958 H       
  43 H43            0.1056     4.0505    -6.1597 H       
  44 H44           -2.1439     3.4222    -6.9393 H       
  45 H45           -3.4846     1.8042    -5.6556 H       
  46 H46           -2.5741     0.8116    -3.5943 H       
  47 H47            5.5113     3.1256     0.4753 H       
  48 H48            5.1136     4.6691     1.2675 H       
  49 H49            6.6005     3.3812     2.7248 H       
  50 H50            4.9821     3.4532     3.4622 H       
  51 H51            5.8529     1.2291     3.4425 H       
@<TRIPOS>BOND
   1    1    2 1
   2    1   17 1
   3    1    3 1
   4    1   28 1
   5    2    4 ar
   6    2    5 ar
   7    3    7 1
   8    3    6 1
   9    3   29 1
  10    4    8 ar
  11    4    9 1
  12    5   13 ar
  13    5   30 1
  14    6    9 1
  15    6   10 1
  16    6   31 1
  17    7   11 1
  18    7   32 1
  19    7   33 1
  20    8   12 ar
  21    8   25 1
  22    9   34 1
  23   10   18 ar
  24   10   22 ar
  25   11   14 1
  26   11   35 1
  27   11   36 1
  28   12   13 ar
  29   12   37 1
  30   13   23 1
  31   14   15 1
  32   14   17 1
  33   14   38 1
  34   15   16 1
  35   15   39 1
  36   15   40 1
  37   16   24 1
  38   16   41 1
  39   18   19 ar
  40   18   42 1
  41   19   20 ar
  42   19   43 1
  43   20   21 ar
  44   20   44 1
  45   21   22 ar
  46   21   45 1
  47   22   46 1
  48   24   26 1
  49   24   47 1
  50   24   48 1
  51   26   27 1
  52   26   49 1
  53   26   50 1
  54   27   51 1

#	End of record

