#	Name: ASD01840472
#	Creating user name:	WinNT
#	Creation time:	15. 06. 2019 19:37

#	Modifying user name:	WinNT
#	Modification time:	15. 06. 2019 19:37

#	Program:	/corina/corina34_cracker 3.40 0067  02.08.2006

@<TRIPOS>MOLECULE
ASD01840472
  51   54    0    0    0
SMALL
NO_CHARGES


@<TRIPOS>ATOM
   1 C1            -0.2732     1.1108    -0.0133 C.ar    
   2 C2            -0.2356    -0.2014    -0.4296 C.ar    
   3 N3             0.8497    -0.9309    -0.2340 N.ar    
   4 N4             1.8984    -0.4691     0.3381 N.ar    
   5 C5             0.8744     1.6403     0.6207 C.ar    
   6 C6             1.1209     2.9664     1.1559 C.2     
   7 C7             1.9748     0.7882     0.7816 C.ar    
   8 S8             3.2846     1.6414     1.5858 S.3     
   9 C9             2.3529     3.1216     1.7011 C.2     
  10 C10           -1.4992     1.9592    -0.2326 C.3     
  11 C11           -1.4357    -0.8081    -1.1099 C.3     
  12 N12            0.1793     3.9857     1.1133 N.pl3   
  13 C13            2.8402     4.3610     2.3048 C.2     
  14 O14            2.1225     5.3438     2.3409 O.2     
  15 N15            4.0839     4.4154     2.8214 N.am    
  16 C16            4.5721     5.6571     3.4263 C.3     
  17 C17            4.1587     5.7286     4.9108 C.3     
  18 C18            5.4874     5.7856     5.6949 C.3     
  19 N19            6.4717     6.3299     4.7244 N.3     
  20 C20            6.1157     5.6769     3.4384 C.3     
  21 C21            7.7802     6.0098     5.1042 C.ar    
  22 C22            8.2478     6.3655     6.3678 C.ar    
  23 C23            9.5430     6.0458     6.7384 C.ar    
  24 C24           10.3699     5.3752     5.8552 C.ar    
  25 C25            9.9071     5.0224     4.6015 C.ar    
  26 C26            8.6131     5.3325     4.2261 C.ar    
  27 O27            7.4339     7.0256     7.2349 O.3     
  28 C28            7.9807     7.3582     8.5126 C.3     
  29 F29            9.0967     8.1843     8.3415 F       
  30 F30            7.0162     8.0287     9.2724 F       
  31 F31            8.3645     6.1871     9.1747 F       
  32 H32           -2.1143     1.9483     0.6672 H       
  33 H33           -1.1977     2.9830    -0.4542 H       
  34 H34           -2.0724     1.5601    -1.0694 H       
  35 H35           -1.3594    -0.6545    -2.1864 H       
  36 H36           -1.4724    -1.8765    -0.8972 H       
  37 H37           -2.3432    -0.3322    -0.7384 H       
  38 H38           -0.7578     3.7750     0.9780 H       
  39 H39            0.4585     4.9086     1.2189 H       
  40 H40            4.6556     3.6324     2.7927 H       
  41 H41            4.1851     6.5196     2.8836 H       
  42 H42            3.5704     6.6271     5.0971 H       
  43 H43            3.5926     4.8399     5.1893 H       
  44 H44            5.3935     6.4497     6.5541 H       
  45 H45            5.7825     4.7866     6.0158 H       
  46 H46            6.5092     4.6609     3.4062 H       
  47 H47            6.4950     6.2592     2.5986 H       
  48 H48            9.9079     6.3203     7.7171 H       
  49 H49           11.3800     5.1270     6.1459 H       
  50 H50           10.5566     4.4996     3.9151 H       
  51 H51            8.2525     5.0517     3.2476 H       
@<TRIPOS>BOND
   1    1    2 ar
   2    1    5 ar
   3    1   10 1
   4    2   11 1
   5    2    3 ar
   6    3    4 ar
   7    4    7 ar
   8    5    7 ar
   9    5    6 1
  10    6    9 2
  11    6   12 1
  12    7    8 1
  13    8    9 1
  14    9   13 1
  15   10   32 1
  16   10   33 1
  17   10   34 1
  18   11   35 1
  19   11   36 1
  20   11   37 1
  21   12   38 1
  22   12   39 1
  23   13   14 2
  24   13   15 am
  25   15   16 1
  26   15   40 1
  27   16   17 1
  28   16   20 1
  29   16   41 1
  30   17   18 1
  31   17   42 1
  32   17   43 1
  33   18   19 1
  34   18   44 1
  35   18   45 1
  36   19   20 1
  37   19   21 1
  38   20   46 1
  39   20   47 1
  40   21   22 ar
  41   21   26 ar
  42   22   23 ar
  43   22   27 1
  44   23   24 ar
  45   23   48 1
  46   24   25 ar
  47   24   49 1
  48   25   26 ar
  49   25   50 1
  50   26   51 1
  51   27   28 1
  52   28   29 1
  53   28   30 1
  54   28   31 1

#	End of record

