#	Name: ASD01915746
#	Creating user name:	WinNT
#	Creation time:	15. 06. 2019 20:06

#	Modifying user name:	WinNT
#	Modification time:	15. 06. 2019 20:06

#	Program:	/corina/corina34_cracker 3.40 0067  02.08.2006

@<TRIPOS>MOLECULE
ASD01915746
  43   46    0    0    0
SMALL
NO_CHARGES


@<TRIPOS>ATOM
   1 C1             0.0134     1.4530     0.2398 C.2     
   2 N2             0.0525     0.1095    -0.0593 N.pl3   
   3 C3            -1.1746    -0.6380    -0.3595 C.3     
   4 C4            -2.3444    -0.0149     0.4004 C.3     
   5 N5            -2.3878     1.4375     0.2714 N.am    
   6 C6            -1.2593     2.1865     0.3114 C.2     
   7 C7             1.3038     1.8559     0.4395 C.2     
   8 C8             2.0768     0.7013     0.2570 C.2     
   9 N9             1.2640    -0.2887    -0.0300 N.2     
  10 C10            3.5769     0.6120     0.3698 C.3     
  11 O11            4.1074     1.8982     0.6957 O.3     
  12 C12            5.4538     1.9920     0.8347 C.ar    
  13 O13           -1.2969     3.3990     0.4020 O.2     
  14 N14            6.2061     0.9169     0.6677 N.ar    
  15 C15            6.0294     3.2171     1.1455 C.ar    
  16 C16            7.4042     3.2993     1.2845 C.ar    
  17 C17            8.1575     2.1473     1.1069 C.ar    
  18 C18            7.5185     0.9639     0.7936 C.ar    
  19 C19           -3.6236     2.0720     0.1023 C.ar    
  20 C20           -4.5329     2.1140     1.1510 C.ar    
  21 C21           -3.9400     2.6656    -1.1127 C.ar    
  22 C22           -5.1602     3.2912    -1.2774 C.ar    
  23 C23           -6.0676     3.3273    -0.2320 C.ar    
  24 C24           -5.7520     2.7406     0.9820 C.ar    
  25 F25           -7.2605     3.9402    -0.3952 F       
  26 C26           -3.6516    -0.5985    -0.1394 C.3     
  27 H27           -1.3731    -0.5964    -1.4305 H       
  28 H28           -1.0526    -1.6765    -0.0517 H       
  29 H29           -2.2556    -0.2722     1.4559 H       
  30 H30            1.6523     2.8484     0.6843 H       
  31 H31            3.8407    -0.0989     1.1528 H       
  32 H32            3.9934     0.2773    -0.5802 H       
  33 H33            5.4128     4.0939     1.2765 H       
  34 H34            7.8797     4.2385     1.5254 H       
  35 H35            9.2324     2.1771     1.2079 H       
  36 H36            8.1001     0.0646     0.6542 H       
  37 H37           -4.2872     1.6566     2.0980 H       
  38 H38           -3.2323     2.6382    -1.9280 H       
  39 H39           -5.4067     3.7529    -2.2221 H       
  40 H40           -6.4613     2.7696     1.7959 H       
  41 H41           -3.6082    -1.6868    -0.0977 H       
  42 H42           -4.4853    -0.2446     0.4670 H       
  43 H43           -3.7926    -0.2798    -1.1722 H       
@<TRIPOS>BOND
   1    1    2 1
   2    1    7 2
   3    1    6 1
   4    2    3 1
   5    2    9 1
   6    3    4 1
   7    3   27 1
   8    3   28 1
   9    4    5 1
  10    4   26 1
  11    4   29 1
  12    5    6 am
  13    5   19 1
  14    6   13 2
  15    7    8 1
  16    7   30 1
  17    8    9 2
  18    8   10 1
  19   10   11 1
  20   10   31 1
  21   10   32 1
  22   11   12 1
  23   12   14 ar
  24   12   15 ar
  25   14   18 ar
  26   15   16 ar
  27   15   33 1
  28   16   17 ar
  29   16   34 1
  30   17   18 ar
  31   17   35 1
  32   18   36 1
  33   19   20 ar
  34   19   21 ar
  35   20   24 ar
  36   20   37 1
  37   21   22 ar
  38   21   38 1
  39   22   23 ar
  40   22   39 1
  41   23   24 ar
  42   23   25 1
  43   24   40 1
  44   26   41 1
  45   26   42 1
  46   26   43 1

#	End of record

