#	Name: ASD06170292
#	Creating user name:	WinNT
#	Creation time:	15. 06. 2019 21:05

#	Modifying user name:	WinNT
#	Modification time:	15. 06. 2019 21:05

#	Program:	/corina/corina34_cracker 3.40 0067  02.08.2006

@<TRIPOS>MOLECULE
ASD06170292
  69   73    0    0    0
SMALL
NO_CHARGES


@<TRIPOS>ATOM
   1 N1             0.0714     1.7474     0.8255 N.am    
   2 N2             0.5114     0.4639     1.1625 N.pl3   
   3 C3             1.8444     0.4711     1.3531 C.2     
   4 C4             2.3099     1.7551     1.1466 C.2     
   5 C5             1.1371     2.5747     0.8028 C.2     
   6 C6             3.7008     2.2122     1.2497 C.2     
   7 O7             4.5799     1.4241     1.5444 O.2     
   8 N8             4.0044     3.5047     1.0180 N.am    
   9 C9            -0.3501    -0.7141     1.2898 C.3     
  10 C10            2.6864    -0.7208     1.7290 C.3     
  11 C11            5.3366     3.9183     1.0137 C.ar    
  12 C12            6.3464     2.9820     0.8248 C.ar    
  13 C13            7.6643     3.4030     0.8223 C.ar    
  14 C14            7.9284     4.7571     1.0105 C.ar    
  15 C15            6.8702     5.6334     1.1929 C.ar    
  16 N16            5.6249     5.1987     1.1842 N.ar    
  17 O17            9.2090     5.2141     1.0157 O.3     
  18 N18           11.1213     5.5930    -2.6187 N.ar    
  19 C19           11.7628     6.0095    -1.5205 C.ar    
  20 C20           11.1414     5.8972    -0.2529 C.ar    
  21 C21            9.8438     5.3422    -0.1752 C.ar    
  22 C22            9.2413     4.9334    -1.3521 C.ar    
  23 C23            9.9165     5.0760    -2.5575 C.ar    
  24 O24            1.1297     3.7646     0.5481 O.2     
  25 C25           -1.2510     2.1117     0.5518 C.ar    
  26 C26           -2.2712     1.7261     1.4117 C.ar    
  27 C27           11.8160     6.3335     0.8967 C.ar    
  28 C28           13.0650     6.8631     0.7892 C.ar    
  29 C29           13.6879     6.9787    -0.4569 C.ar    
  30 C30           13.0518     6.5600    -1.6036 C.ar    
  31 C31           15.5423     7.9282     0.6871 C.3     
  32 O32           14.9349     7.5113    -0.5373 O.3     
  33 C33           -0.7054    -1.2390    -0.1027 C.3     
  34 O34            0.4938    -1.5535    -0.8135 O.3     
  35 C35           -1.4857    -0.1681    -0.8677 C.3     
  36 C36           -3.5758     2.0878     1.1388 C.ar    
  37 C37           -3.8669     2.8326     0.0107 C.ar    
  38 C38           -2.8535     3.2178    -0.8477 C.ar    
  39 C39           -1.5459     2.8646    -0.5773 C.ar    
  40 C40            0.3869    -1.8027     2.0725 C.3     
  41 H41            3.2965     4.1473     0.8542 H       
  42 H42           -1.2631    -0.4411     1.8190 H       
  43 H43            2.9307    -1.2904     0.8324 H       
  44 H44            3.6061    -0.3804     2.2050 H       
  45 H45            2.1316    -1.3537     2.4216 H       
  46 H46            6.1053     1.9390     0.6821 H       
  47 H47            8.4694     2.6977     0.6782 H       
  48 H48            7.0674     6.6851     1.3394 H       
  49 H49            8.2503     4.5044    -1.3333 H       
  50 H50            9.4366     4.7534    -3.4696 H       
  51 H51           -2.0446     1.1437     2.2925 H       
  52 H52           11.3452     6.2498     1.8651 H       
  53 H53           13.5809     7.1982     1.6768 H       
  54 H54           13.5418     6.6533    -2.5615 H       
  55 H55           14.9259     8.6954     1.1558 H       
  56 H56           15.6315     7.0738     1.3580 H       
  57 H57           16.5330     8.3337     0.4816 H       
  58 H58           -1.3173    -2.1361    -0.0077 H       
  59 H59            1.1202    -0.8191    -0.8723 H       
  60 H60           -0.9202     0.7637    -0.8667 H       
  61 H61           -1.6423    -0.4970    -1.8950 H       
  62 H62           -2.4505    -0.0082    -0.3863 H       
  63 H63           -4.3697     1.7882     1.8070 H       
  64 H64           -4.8880     3.1139    -0.2007 H       
  65 H65           -3.0842     3.7989    -1.7284 H       
  66 H66           -0.7548     3.1660    -1.2479 H       
  67 H67            1.2366    -2.1574     1.4892 H       
  68 H68            0.7411    -1.3934     3.0186 H       
  69 H69           -0.2920    -2.6330     2.2673 H       
@<TRIPOS>BOND
   1    1    2 1
   2    1    5 am
   3    1   25 1
   4    2    3 1
   5    2    9 1
   6    3    4 2
   7    3   10 1
   8    4    5 1
   9    4    6 1
  10    5   24 2
  11    6    7 2
  12    6    8 am
  13    8   11 1
  14    8   41 1
  15    9   33 1
  16    9   40 1
  17    9   42 1
  18   10   43 1
  19   10   44 1
  20   10   45 1
  21   11   12 ar
  22   11   16 ar
  23   12   13 ar
  24   12   46 1
  25   13   14 ar
  26   13   47 1
  27   14   15 ar
  28   14   17 1
  29   15   16 ar
  30   15   48 1
  31   17   21 1
  32   18   19 ar
  33   18   23 ar
  34   19   20 ar
  35   19   30 ar
  36   20   21 ar
  37   20   27 ar
  38   21   22 ar
  39   22   23 ar
  40   22   49 1
  41   23   50 1
  42   25   26 ar
  43   25   39 ar
  44   26   36 ar
  45   26   51 1
  46   27   28 ar
  47   27   52 1
  48   28   29 ar
  49   28   53 1
  50   29   30 ar
  51   29   32 1
  52   30   54 1
  53   31   32 1
  54   31   55 1
  55   31   56 1
  56   31   57 1
  57   33   34 1
  58   33   35 1
  59   33   58 1
  60   34   59 1
  61   35   60 1
  62   35   61 1
  63   35   62 1
  64   36   37 ar
  65   36   63 1
  66   37   38 ar
  67   37   64 1
  68   38   39 ar
  69   38   65 1
  70   39   66 1
  71   40   67 1
  72   40   68 1
  73   40   69 1

#	End of record

