#	Name: ASD04590552
#	Creating user name:	WinNT
#	Creation time:	15. 06. 2019 20:51

#	Modifying user name:	WinNT
#	Modification time:	15. 06. 2019 20:51

#	Program:	/corina/corina34_cracker 3.40 0067  02.08.2006

@<TRIPOS>MOLECULE
ASD04590552
  64   69    0    0    0
SMALL
NO_CHARGES


@<TRIPOS>ATOM
   1 N1             2.2756     1.4479    -0.0337 N.ar    
   2 C2             2.4033     0.1287    -0.0496 C.ar    
   3 C3             1.2882    -0.6784    -0.0313 C.ar    
   4 C4             0.0243    -0.0953    -0.0031 C.ar    
   5 C5            -0.0734     1.2828     0.0100 C.ar    
   6 C6             1.0942     2.0390    -0.0050 C.ar    
   7 N7             1.0173     3.4288     0.0107 N.pl3   
   8 C8             2.1738     4.1856     0.1078 C.ar    
   9 N9             2.0850     5.5022     0.0129 N.ar    
  10 C10            3.1725     6.2623     0.1011 C.ar    
  11 C11            4.4180     5.6324     0.2975 C.ar    
  12 C12            4.4616     4.2450     0.3912 C.ar    
  13 N13            3.3308     3.5647     0.2980 N.ar    
  14 N14            3.3770     7.6185     0.0406 N.pl3   
  15 C15            4.7213     7.9120     0.1907 C.ar    
  16 C16            5.4211     6.7033     0.3554 C.ar    
  17 C17            5.4399     9.1004     0.2053 C.ar    
  18 N18            6.7471     9.0912     0.3696 N.ar    
  19 C19            7.4340     7.9735     0.5269 C.ar    
  20 C20            6.8042     6.7470     0.5267 C.ar    
  21 C21            2.3210     8.6147    -0.1561 C.3     
  22 C22            1.3059     8.5139     0.9841 C.3     
  23 C23            0.2031     9.5544     0.7787 C.3     
  24 C24           -0.5005     9.2952    -0.5549 C.3     
  25 C25            0.5146     9.3960    -1.6952 C.3     
  26 C26            1.6174     8.3556    -1.4898 C.3     
  27 C27           -1.6033    10.3357    -0.7603 C.3     
  28 C28            3.7943    -0.4527    -0.0948 C.3     
  29 C29            3.7582    -1.9255     0.3131 C.3     
  30 N30            2.7196    -2.6054    -0.4771 N.3     
  31 C31            1.3873    -2.1803    -0.0354 C.3     
  32 C32            2.8624    -4.0648    -0.3895 C.3     
  33 C33            1.6345    -4.7355    -1.0085 C.3     
  34 F34            1.7705    -6.1253    -0.9251 F       
  35 H35           -0.8641    -0.7093     0.0079 H       
  36 H36           -1.0396     1.7648     0.0312 H       
  37 H37            0.1540     3.8675    -0.0463 H       
  38 H38            5.4007     3.7331     0.5413 H       
  39 H39            4.9227    10.0403     0.0806 H       
  40 H40            8.5050     8.0214     0.6576 H       
  41 H41            7.3717     5.8371     0.6554 H       
  42 H42            2.7599     9.6124    -0.1648 H       
  43 H43            0.8671     7.5162     0.9928 H       
  44 H44            1.8072     8.6985     1.9343 H       
  45 H45           -0.5200     9.4826     1.5911 H       
  46 H46            0.6420    10.5521     0.7701 H       
  47 H47           -0.9394     8.2975    -0.5463 H       
  48 H48            0.0133     9.2114    -2.6453 H       
  49 H49            0.9534    10.3938    -1.7038 H       
  50 H50            2.3406     8.4274    -2.3021 H       
  51 H51            1.1785     7.3579    -1.4812 H       
  52 H52           -1.1644    11.3334    -0.7689 H       
  53 H53           -2.1046    10.1511    -1.7104 H       
  54 H54           -2.3265    10.2639     0.0520 H       
  55 H55            4.1895    -0.3672    -1.1071 H       
  56 H56            4.4388     0.0971     0.5911 H       
  57 H57            4.7272    -2.3839     0.1155 H       
  58 H58            3.5220    -2.0057     1.3742 H       
  59 H59            1.2045    -2.5561     0.9713 H       
  60 H60            0.6362    -2.5891    -0.7113 H       
  61 H61            3.7569    -4.3754    -0.9294 H       
  62 H62            2.9488    -4.3593     0.6564 H       
  63 H63            0.7400    -4.4249    -0.4686 H       
  64 H64            1.5482    -4.4410    -2.0544 H       
@<TRIPOS>BOND
   1    1    2 ar
   2    1    6 ar
   3    2    3 ar
   4    2   28 1
   5    3    4 ar
   6    3   31 1
   7    4    5 ar
   8    4   35 1
   9    5    6 ar
  10    5   36 1
  11    6    7 1
  12    7    8 1
  13    7   37 1
  14    8    9 ar
  15    8   13 ar
  16    9   10 ar
  17   10   11 ar
  18   10   14 1
  19   11   12 ar
  20   11   16 1
  21   12   13 ar
  22   12   38 1
  23   14   15 1
  24   14   21 1
  25   15   16 ar
  26   15   17 ar
  27   16   20 ar
  28   17   18 ar
  29   17   39 1
  30   18   19 ar
  31   19   20 ar
  32   19   40 1
  33   20   41 1
  34   21   22 1
  35   21   26 1
  36   21   42 1
  37   22   23 1
  38   22   43 1
  39   22   44 1
  40   23   24 1
  41   23   45 1
  42   23   46 1
  43   24   25 1
  44   24   27 1
  45   24   47 1
  46   25   26 1
  47   25   48 1
  48   25   49 1
  49   26   50 1
  50   26   51 1
  51   27   52 1
  52   27   53 1
  53   27   54 1
  54   28   29 1
  55   28   55 1
  56   28   56 1
  57   29   30 1
  58   29   57 1
  59   29   58 1
  60   30   31 1
  61   30   32 1
  62   31   59 1
  63   31   60 1
  64   32   33 1
  65   32   61 1
  66   32   62 1
  67   33   34 1
  68   33   63 1
  69   33   64 1

#	End of record

