#	Name: ASD01912992
#	Creating user name:	WinNT
#	Creation time:	15. 06. 2019 20:00

#	Modifying user name:	WinNT
#	Modification time:	15. 06. 2019 20:00

#	Program:	/corina/corina34_cracker 3.40 0067  02.08.2006

@<TRIPOS>MOLECULE
ASD01912992
  45   48    0    0    0
SMALL
NO_CHARGES


@<TRIPOS>ATOM
   1 C1             0.0272     1.4259     0.0147 C.2     
   2 C2             0.0609    -0.0057     0.0073 C.1     
   3 C3             0.0886    -1.1793     0.0013 C.1     
   4 C4             0.1223    -2.6109    -0.0061 C.ar    
   5 C5            -1.0691    -3.3418     0.0167 C.ar    
   6 C6             1.3468    -3.2845    -0.0420 C.ar    
   7 C7             1.3712    -4.6633    -0.0493 C.ar    
   8 C8             0.1876    -5.3800    -0.0218 C.ar    
   9 C9            -1.0285    -4.7202     0.0089 C.ar    
  10 N10            1.0680     2.2065    -0.0045 N.2     
  11 C11            0.8642     3.5127     0.0075 C.2     
  12 C12           -0.4381     3.8673     0.0333 C.2     
  13 S13           -1.4297     2.4144     0.0436 S.3     
  14 C14            1.9951     4.5329     0.0009 C.3     
  15 C15            1.4483     5.8865    -0.4566 C.3     
  16 N16            0.2052     6.1750     0.2742 N.am    
  17 C17           -0.9492     5.2908     0.0410 C.3     
  18 C18            0.1251     7.2137     1.1292 C.2     
  19 C19           -1.1706     7.5613     1.7510 C.ar    
  20 O20            1.1181     7.8649     1.3891 O.2     
  21 C21           -1.2117     8.0478     3.0585 C.ar    
  22 C22           -2.4228     8.3711     3.6358 C.ar    
  23 C23           -3.5969     8.2147     2.9230 C.ar    
  24 C24           -3.5659     7.7310     1.6219 C.ar    
  25 C25           -2.3559     7.4094     1.0308 C.ar    
  26 O26           -4.7235     7.5785     0.9261 O.3     
  27 C27           -5.9345     7.9354     1.5955 C.3     
  28 H28           -2.0189    -2.8283     0.0407 H       
  29 H29            2.2712    -2.7266    -0.0642 H       
  30 H30            2.3163    -5.1852    -0.0770 H       
  31 H31            0.2130    -6.4597    -0.0284 H       
  32 H32           -1.9481    -5.2863     0.0303 H       
  33 H33            2.4065     4.6271     1.0059 H       
  34 H34            2.7770     4.2055    -0.6844 H       
  35 H35            2.1822     6.6651    -0.2490 H       
  36 H36            1.2428     5.8537    -1.5266 H       
  37 H37           -1.4066     5.5249    -0.9203 H       
  38 H38           -1.6798     5.4174     0.8400 H       
  39 H39           -0.2964     8.1708     3.6183 H       
  40 H40           -2.4534     8.7471     4.6478 H       
  41 H41           -4.5418     8.4694     3.3800 H       
  42 H42           -2.3304     7.0334     0.0187 H       
  43 H43           -6.7810     7.7659     0.9300 H       
  44 H44           -6.0484     7.3244     2.4910 H       
  45 H45           -5.8980     8.9880     1.8761 H       
@<TRIPOS>BOND
   1    1    2 1
   2    1   10 2
   3    1   13 1
   4    2    3 3
   5    3    4 1
   6    4    5 ar
   7    4    6 ar
   8    5    9 ar
   9    5   28 1
  10    6    7 ar
  11    6   29 1
  12    7    8 ar
  13    7   30 1
  14    8    9 ar
  15    8   31 1
  16    9   32 1
  17   10   11 1
  18   11   12 2
  19   11   14 1
  20   12   13 1
  21   12   17 1
  22   14   15 1
  23   14   33 1
  24   14   34 1
  25   15   16 1
  26   15   35 1
  27   15   36 1
  28   16   17 1
  29   16   18 am
  30   17   37 1
  31   17   38 1
  32   18   19 1
  33   18   20 2
  34   19   21 ar
  35   19   25 ar
  36   21   22 ar
  37   21   39 1
  38   22   23 ar
  39   22   40 1
  40   23   24 ar
  41   23   41 1
  42   24   25 ar
  43   24   26 1
  44   25   42 1
  45   26   27 1
  46   27   43 1
  47   27   44 1
  48   27   45 1

#	End of record

