#	Name: ASD03540483
#	Creating user name:	WinNT
#	Creation time:	15. 06. 2019 20:43

#	Modifying user name:	WinNT
#	Modification time:	15. 06. 2019 20:43

#	Program:	/corina/corina34_cracker 3.40 0067  02.08.2006

@<TRIPOS>MOLECULE
ASD03540483
  61   64    0    0    0
SMALL
NO_CHARGES


@<TRIPOS>ATOM
   1 C1             3.3307    -8.0486    -2.1423 C.2     
   2 C2             2.5068    -6.9948    -1.5154 C.ar    
   3 C3             3.1090    -5.8391    -1.0141 C.ar    
   4 C4             2.3337    -4.8588    -0.4304 C.ar    
   5 C5             0.9623    -5.0190    -0.3406 C.ar    
   6 C6             0.3590    -6.1620    -0.8349 C.ar    
   7 C7             1.1217    -7.1473    -1.4267 C.ar    
   8 O8             4.5349    -7.9108    -2.2226 O.2     
   9 O9             2.7472    -9.1648    -2.6200 O.3     
  10 C10            0.1218    -3.9440     0.2989 C.3     
  11 N11           -3.3515    -4.7308     1.2415 N.am    
  12 C12           -2.2619    -4.2116     0.6508 C.2     
  13 N13           -1.0118    -4.5591     0.9939 N.am    
  14 C14           -0.7795    -5.4658     1.9679 C.2     
  15 C15           -1.9391    -6.0687     2.6504 C.ar    
  16 C16           -1.7830    -7.0085     3.6615 C.ar    
  17 C17           -2.9149    -7.5465     4.2725 C.ar    
  18 C18           -4.1919    -7.1398     3.8667 C.ar    
  19 C19           -4.3451    -6.2155     2.8722 C.ar    
  20 C20           -3.2290    -5.6685     2.2520 C.ar    
  21 O21            0.3556    -5.7767     2.2733 O.2     
  22 O22           -2.4153    -3.3910    -0.2329 O.2     
  23 C23           -2.7668    -8.5468     5.3484 C.2     
  24 N24           -1.8486    -9.5268     5.2357 N.am    
  25 O25           -3.4733    -8.4863     6.3360 O.2     
  26 C26           -1.7697   -10.5773     6.2537 C.3     
  27 C27           -2.7601   -11.6660     5.9299 C.ar    
  28 C28           -2.3813   -12.7306     5.1336 C.ar    
  29 C29           -3.2899   -13.7292     4.8365 C.ar    
  30 C30           -4.5771   -13.6635     5.3362 C.ar    
  31 C31           -4.9556   -12.5994     6.1332 C.ar    
  32 C32           -4.0458   -11.6030     6.4338 C.ar    
  33 S33           -0.8094    -9.5436     3.9464 S.3     
  34 C34           -5.5678   -14.7516     5.0115 C.3     
  35 C35            0.9715    -3.1616     1.3023 C.3     
  36 C36            3.6184   -10.1578    -3.2228 C.3     
  37 H37            4.1795    -5.7131    -1.0829 H       
  38 H38            2.7982    -3.9644    -0.0422 H       
  39 H39           -0.7118    -6.2810    -0.7610 H       
  40 H40            0.6491    -8.0368    -1.8164 H       
  41 H41           -0.2481    -3.2662    -0.4704 H       
  42 H42           -4.2336    -4.4427     0.9589 H       
  43 H43           -0.7958    -7.3191     3.9705 H       
  44 H44           -5.0642    -7.5611     4.3442 H       
  45 H45           -5.3352    -5.9100     2.5677 H       
  46 H46           -0.7628   -10.9946     6.2680 H       
  47 H47           -2.0015   -10.1542     7.2311 H       
  48 H48           -1.3756   -12.7819     4.7432 H       
  49 H49           -2.9941   -14.5605     4.2138 H       
  50 H50           -5.9614   -12.5478     6.5233 H       
  51 H51           -4.3405   -10.7735     7.0596 H       
  52 H52           -0.0633   -10.6394     4.1733 H       
  53 H53           -5.5092   -15.5340     5.7682 H       
  54 H54           -6.5746   -14.3341     4.9979 H       
  55 H55           -5.3363   -15.1738     4.0336 H       
  56 H56            1.3414    -3.8394     2.0716 H       
  57 H57            1.8149    -2.7040     0.7852 H       
  58 H58            0.3636    -2.3840     1.7648 H       
  59 H59            4.1418    -9.7153    -4.0703 H       
  60 H60            4.3447   -10.4996    -2.4854 H       
  61 H61            3.0226   -11.0039    -3.5652 H       
@<TRIPOS>BOND
   1    1    2 1
   2    1    8 2
   3    1    9 1
   4    2    3 ar
   5    2    7 ar
   6    3    4 ar
   7    3   37 1
   8    4    5 ar
   9    4   38 1
  10    5    6 ar
  11    5   10 1
  12    6    7 ar
  13    6   39 1
  14    7   40 1
  15    9   36 1
  16   10   13 1
  17   10   35 1
  18   10   41 1
  19   11   12 am
  20   11   20 1
  21   11   42 1
  22   12   13 am
  23   12   22 2
  24   13   14 am
  25   14   15 1
  26   14   21 2
  27   15   16 ar
  28   15   20 ar
  29   16   17 ar
  30   16   43 1
  31   17   18 ar
  32   17   23 1
  33   18   19 ar
  34   18   44 1
  35   19   20 ar
  36   19   45 1
  37   23   24 am
  38   23   25 2
  39   24   26 1
  40   24   33 1
  41   26   27 1
  42   26   46 1
  43   26   47 1
  44   27   28 ar
  45   27   32 ar
  46   28   29 ar
  47   28   48 1
  48   29   30 ar
  49   29   49 1
  50   30   31 ar
  51   30   34 1
  52   31   32 ar
  53   31   50 1
  54   32   51 1
  55   33   52 1
  56   34   53 1
  57   34   54 1
  58   34   55 1
  59   35   56 1
  60   35   57 1
  61   35   58 1
  62   36   59 1
  63   36   60 1
  64   36   61 1

#	End of record

