#	Name: ASD04330002
#	Creating user name:	WinNT
#	Creation time:	15. 06. 2019 20:48

#	Modifying user name:	WinNT
#	Modification time:	15. 06. 2019 20:48

#	Program:	/corina/corina34_cracker 3.40 0067  02.08.2006

@<TRIPOS>MOLECULE
ASD04330002
  22   22    0    0    0
SMALL
NO_CHARGES


@<TRIPOS>ATOM
   1 I1            -2.6421     1.1699    -6.4013 I       
   2 S2            -0.0225     1.8097     0.0120 S.3     
   3 O3             0.0425    -0.8380     2.3255 O.3     
   4 O4             1.9351    -0.6023     1.2093 O.2     
   5 C5             0.7182    -0.4975    -1.2568 C.3     
   6 C6            -0.0771    -0.1029    -2.4745 C.ar    
   7 C7             0.0021    -0.0041     0.0020 C.3     
   8 C8             0.1627     1.1098    -3.0934 C.ar    
   9 C9            -1.0424    -0.9561    -2.9758 C.ar    
  10 C10            0.7309    -0.5033     1.2229 C.2     
  11 C11           -0.5666     1.4720    -4.2103 C.ar    
  12 C12           -1.7717    -0.5946    -4.0929 C.ar    
  13 C13           -1.5360     0.6210    -4.7089 C.ar    
  14 H14            1.2837     2.1301     0.0012 H       
  15 H15            0.5536    -1.1530     3.0835 H       
  16 H16            0.8116    -1.5829    -1.2198 H       
  17 H17            1.7103    -0.0491    -1.3098 H       
  18 H18           -1.0205    -0.3814     0.0098 H       
  19 H19            0.9197     1.7744    -2.7039 H       
  20 H20           -1.2264    -1.9053    -2.4947 H       
  21 H21           -0.3797     2.4197    -4.6933 H       
  22 H22           -2.5260    -1.2611    -4.4843 H       
@<TRIPOS>BOND
   1    1   13 1
   2    2    7 1
   3    2   14 1
   4    3   10 1
   5    3   15 1
   6    4   10 2
   7    5    6 1
   8    5    7 1
   9    5   16 1
  10    5   17 1
  11    6    8 ar
  12    6    9 ar
  13    7   10 1
  14    7   18 1
  15    8   11 ar
  16    8   19 1
  17    9   12 ar
  18    9   20 1
  19   11   13 ar
  20   11   21 1
  21   12   13 ar
  22   12   22 1

#	End of record

