#	Name: ASD01815762
#	Creating user name:	WinNT
#	Creation time:	15. 06. 2019 19:33

#	Modifying user name:	WinNT
#	Modification time:	15. 06. 2019 19:33

#	Program:	/corina/corina34_cracker 3.40 0067  02.08.2006

@<TRIPOS>MOLECULE
ASD01815762
  64   69    0    0    0
SMALL
NO_CHARGES


@<TRIPOS>ATOM
   1 C1            -0.0168     1.3869     0.0097 C.ar    
   2 C2             0.0021    -0.0041     0.0020 C.ar    
   3 C3             1.1801    -0.6897    -0.0129 C.ar    
   4 C4             2.3948     0.0129    -0.0207 C.ar    
   5 C5             2.3717     1.4290    -0.0129 C.ar    
   6 C6             1.1455     2.1015     0.0024 C.ar    
   7 C7             3.6293    -0.6694    -0.0365 C.ar    
   8 C8             4.8031     0.0063    -0.0446 C.ar    
   9 C9             4.8359     1.4095    -0.0374 C.ar    
  10 C10            3.6406     2.1511    -0.0211 C.ar    
  11 C11            6.1026     2.1526    -0.0470 C.2     
  12 N12            6.0328     3.5041    -0.0399 N.am    
  13 C13            4.8302     4.1313    -0.0241 C.2     
  14 N14            3.6961     3.4935    -0.0158 N.2     
  15 C15            7.2655     4.2957    -0.0490 C.3     
  16 C16            7.2938     5.1857    -1.2953 C.3     
  17 C17            7.3143     5.1822     1.1993 C.3     
  18 C18            8.5657     6.0622     1.1420 C.3     
  19 O19            8.5443     6.8411    -0.0559 O.3     
  20 C20            8.5460     6.0656    -1.2562 C.3     
  21 O21            7.3616     4.3602     2.3672 O.3     
  22 O22            7.1745     1.5748    -0.0604 O.2     
  23 C23            3.6424    -2.1763    -0.0442 C.3     
  24 C24            3.5087    -2.6726    -1.4608 C.ar    
  25 C25            4.6395    -2.8891    -2.2263 C.ar    
  26 C26            4.5213    -3.3450    -3.5268 C.ar    
  27 C27            3.2726    -3.5855    -4.0649 C.ar    
  28 C28            2.1342    -3.3690    -3.2984 C.ar    
  29 C29            2.2568    -2.9162    -1.9911 C.ar    
  30 N30            0.8696    -3.6108    -3.8398 N.3     
  31 C31            0.9724    -4.0868    -5.2269 C.3     
  32 C32            0.0249    -2.4100    -3.7623 C.3     
  33 C33           -1.3671    -2.7357    -4.3102 C.3     
  34 O34           -1.2447    -3.2261    -5.6480 O.3     
  35 C35           -0.4291    -4.3956    -5.7601 C.3     
  36 H36           -0.9630     1.9076     0.0169 H       
  37 H37           -0.9305    -0.5488     0.0083 H       
  38 H38            1.1786    -1.7697    -0.0183 H       
  39 H39            1.1188     3.1811     0.0081 H       
  40 H40            5.7317    -0.5451    -0.0563 H       
  41 H41            4.8132     5.2111    -0.0182 H       
  42 H42            8.1273     3.6284    -0.0578 H       
  43 H43            7.3151     4.5613    -2.1884 H       
  44 H44            6.4054     5.8170    -1.3123 H       
  45 H45            6.4263     5.8134     1.2327 H       
  46 H46            8.5835     6.7256     2.0067 H       
  47 H47            9.4545     5.4312     1.1495 H       
  48 H48            9.4345     5.4346    -1.2801 H       
  49 H49            8.5495     6.7314    -2.1192 H       
  50 H50            7.3941     4.8565     3.1965 H       
  51 H51            4.5813    -2.5336     0.3789 H       
  52 H52            2.8098    -2.5499     0.5518 H       
  53 H53            5.6174    -2.7014    -1.8080 H       
  54 H54            5.4066    -3.5127    -4.1221 H       
  55 H55            3.1810    -3.9411    -5.0805 H       
  56 H56            1.3739    -2.7469    -1.3926 H       
  57 H57            1.4345    -3.3154    -5.8431 H       
  58 H58            1.5808    -4.9907    -5.2574 H       
  59 H59           -0.0584    -2.0900    -2.7237 H       
  60 H60            0.4718    -1.6119    -4.3551 H       
  61 H61           -1.8355    -3.4960    -3.6852 H       
  62 H62           -1.9793    -1.8338    -4.3078 H       
  63 H63           -0.3629    -4.6942    -6.8063 H       
  64 H64           -0.8702    -5.2042    -5.1773 H       
@<TRIPOS>BOND
   1    1    2 ar
   2    1    6 ar
   3    1   36 1
   4    2    3 ar
   5    2   37 1
   6    3    4 ar
   7    3   38 1
   8    4    5 ar
   9    4    7 ar
  10    5    6 ar
  11    5   10 ar
  12    6   39 1
  13    7    8 ar
  14    7   23 1
  15    8    9 ar
  16    8   40 1
  17    9   10 ar
  18    9   11 1
  19   10   14 1
  20   11   12 am
  21   11   22 2
  22   12   13 1
  23   12   15 1
  24   13   14 2
  25   13   41 1
  26   15   16 1
  27   15   17 1
  28   15   42 1
  29   16   20 1
  30   16   43 1
  31   16   44 1
  32   17   18 1
  33   17   21 1
  34   17   45 1
  35   18   19 1
  36   18   46 1
  37   18   47 1
  38   19   20 1
  39   20   48 1
  40   20   49 1
  41   21   50 1
  42   23   24 1
  43   23   51 1
  44   23   52 1
  45   24   25 ar
  46   24   29 ar
  47   25   26 ar
  48   25   53 1
  49   26   27 ar
  50   26   54 1
  51   27   28 ar
  52   27   55 1
  53   28   29 ar
  54   28   30 1
  55   29   56 1
  56   30   31 1
  57   30   32 1
  58   31   35 1
  59   31   57 1
  60   31   58 1
  61   32   33 1
  62   32   59 1
  63   32   60 1
  64   33   34 1
  65   33   61 1
  66   33   62 1
  67   34   35 1
  68   35   63 1
  69   35   64 1

#	End of record

