#	Name: ASD01730053
#	Creating user name:	WinNT
#	Creation time:	15. 06. 2019 19:23

#	Modifying user name:	WinNT
#	Modification time:	15. 06. 2019 19:23

#	Program:	/corina/corina34_cracker 3.40 0067  02.08.2006

@<TRIPOS>MOLECULE
ASD01730053
  46   49    0    0    0
SMALL
NO_CHARGES


@<TRIPOS>ATOM
   1 C1            -0.1027     1.2081    -0.0392 C.ar    
   2 C2            -0.0679    -0.1674    -0.2811 C.ar    
   3 C3             1.1601    -0.8325    -0.3121 C.ar    
   4 C4             2.3442    -0.1190    -0.1013 C.ar    
   5 C5             2.3038     1.2378     0.1374 C.ar    
   6 C6             1.0918     1.9073     0.1698 C.ar    
   7 C7            -1.3933     1.9222    -0.0101 C.2     
   8 O8            -2.0036     2.0327     1.0357 O.2     
   9 N9            -1.8958     2.4522    -1.1428 N.am    
  10 F10            1.0624     3.2375     0.4041 F       
  11 F11           -1.2157    -0.8506    -0.4835 F       
  12 C12            1.2077    -2.2850    -0.5663 C.2     
  13 O13            0.1775    -2.9042    -0.7491 O.2     
  14 N14            2.3932    -2.9254    -0.5960 N.am    
  15 C15           -3.1632     3.0435    -1.1359 C.ar    
  16 C16           -3.5958     3.7494    -0.0207 C.ar    
  17 C17           -4.8479     4.3321    -0.0171 C.ar    
  18 C18           -5.6708     4.2129    -1.1220 C.ar    
  19 C19           -5.2434     3.5104    -2.2338 C.ar    
  20 C20           -3.9898     2.9310    -2.2464 C.ar    
  21 S21            3.9095    -5.2483    -0.9005 S.3     
  22 C22            2.4379    -4.2889    -0.8346 C.2     
  23 N23            1.4076    -5.0333    -1.0388 N.2     
  24 C24            1.6121    -6.3485    -1.2569 C.ar    
  25 C25            2.9650    -6.7002    -1.2238 C.ar    
  26 C26            0.6602    -7.3603    -1.5028 C.ar    
  27 C27            1.0587    -8.6575    -1.7036 C.ar    
  28 C28            2.4075    -8.9965    -1.6681 C.ar    
  29 C29            3.3562    -8.0208    -1.4297 C.ar    
  30 O30            2.7914   -10.2856    -1.8675 O.3     
  31 C31            1.7563   -11.2409    -2.1085 C.3     
  32 F32            1.0453   -10.8783    -3.2575 F       
  33 F33            2.3232   -12.5068    -2.2909 F       
  34 F34            0.8870   -11.2728    -1.0128 F       
  35 H35            3.2937    -0.6331    -0.1253 H       
  36 H36            3.2224     1.7820     0.3000 H       
  37 H37           -1.3785     2.4235    -1.9629 H       
  38 H38            3.2151    -2.4314    -0.4502 H       
  39 H39           -2.9538     3.8422     0.8428 H       
  40 H40           -5.1849     4.8811     0.8498 H       
  41 H41           -6.6497     4.6692    -1.1165 H       
  42 H42           -5.8887     3.4186    -3.0948 H       
  43 H43           -3.6545     2.3868    -3.1170 H       
  44 H44           -0.3903    -7.1117    -1.5329 H       
  45 H45            0.3191    -9.4220    -1.8905 H       
  46 H46            4.4035    -8.2830    -1.4022 H       
@<TRIPOS>BOND
   1    1    2 ar
   2    1    6 ar
   3    1    7 1
   4    2    3 ar
   5    2   11 1
   6    3    4 ar
   7    3   12 1
   8    4    5 ar
   9    4   35 1
  10    5    6 ar
  11    5   36 1
  12    6   10 1
  13    7    8 2
  14    7    9 am
  15    9   15 1
  16    9   37 1
  17   12   13 2
  18   12   14 am
  19   14   22 1
  20   14   38 1
  21   15   16 ar
  22   15   20 ar
  23   16   17 ar
  24   16   39 1
  25   17   18 ar
  26   17   40 1
  27   18   19 ar
  28   18   41 1
  29   19   20 ar
  30   19   42 1
  31   20   43 1
  32   21   22 1
  33   21   25 1
  34   22   23 2
  35   23   24 1
  36   24   25 ar
  37   24   26 ar
  38   25   29 ar
  39   26   27 ar
  40   26   44 1
  41   27   28 ar
  42   27   45 1
  43   28   29 ar
  44   28   30 1
  45   29   46 1
  46   30   31 1
  47   31   32 1
  48   31   33 1
  49   31   34 1

#	End of record

