#	Name: ASD08170336
#	Creating user name:	WinNT
#	Creation time:	15. 06. 2019 21:17

#	Modifying user name:	WinNT
#	Modification time:	15. 06. 2019 21:17

#	Program:	/corina/corina34_cracker 3.40 0067  02.08.2006

@<TRIPOS>MOLECULE
ASD08170336
  52   53    0    0    0
SMALL
NO_CHARGES


@<TRIPOS>ATOM
   1 C1            -0.0155     1.2910     0.0091 C.2     
   2 N2             0.0021    -0.0041     0.0020 N.2     
   3 N3            -1.1192    -0.5842     0.0096 N.2     
   4 C4            -2.1834     0.1604     0.0237 C.2     
   5 S5            -1.7028     1.8047     0.0357 S.3     
   6 C6             1.1892     2.1964     0.0025 C.3     
   7 C7             3.1995     3.7447    -2.8935 C.3     
   8 C8             4.4042     4.6501    -2.9002 C.2     
   9 S9             4.3803     6.4138    -2.8899 S.3     
  10 C10            6.0933     6.4179    -2.9067 C.2     
  11 N11            6.5124     5.1885    -2.9178 N.2     
  12 N12            5.6433     4.2729    -2.9089 N.2     
  13 N13            6.9013     7.5498    -2.9081 N.am    
  14 C14            8.2428     7.4202    -2.9220 C.2     
  15 C15            9.1183     8.6468    -2.9236 C.3     
  16 O16            8.7453     6.3164    -2.9333 O.2     
  17 C17           10.5886     8.2238    -2.9405 C.3     
  18 N18           -3.4954    -0.3008     0.0334 N.am    
  19 C19           -3.7441    -1.6254     0.0287 C.2     
  20 C20           -5.1658    -2.1251     0.0391 C.3     
  21 O21           -2.8238    -2.4152     0.0161 O.2     
  22 C22           -5.1687    -3.6551     0.0311 C.3     
  23 C23            1.5828     2.5110    -1.4422 C.3     
  24 C24            2.8059     3.4301    -1.4489 C.3     
  25 O25           -4.6114    -4.1261    -1.1976 O.3     
  26 C26           -6.5838    -4.1555     0.1653 C.2     
  27 O27           10.8769     7.5520    -4.1683 O.3     
  28 C28           11.4639     9.4445    -2.8183 C.2     
  29 O29           12.1883     9.7624    -3.7315 O.2     
  30 O30           11.4387    10.1786    -1.6948 O.3     
  31 O31           -7.2747    -3.9207     1.2919 O.3     
  32 O32           -7.0965    -4.7681    -0.7412 O.2     
  33 H33            0.9501     3.1232     0.5240 H       
  34 H34            2.0193     1.7002     0.5054 H       
  35 H35            2.3694     4.2409    -3.3964 H       
  36 H36            3.4386     2.8179    -3.4151 H       
  37 H37            6.4994     8.4326    -2.8991 H       
  38 H38            8.9025     9.2461    -3.8081 H       
  39 H39            8.9200     9.2359    -2.0283 H       
  40 H40           10.7830     7.5521    -2.1044 H       
  41 H41           -4.2314     0.3309     0.0435 H       
  42 H42           -5.6707    -1.7656     0.9357 H       
  43 H43           -5.6871    -1.7562    -0.8442 H       
  44 H44           -4.5722    -4.0239     0.8656 H       
  45 H45            1.8219     1.5842    -1.9637 H       
  46 H46            0.7527     3.0071    -1.9450 H       
  47 H47            3.6360     2.9340    -0.9460 H       
  48 H48            2.5668     4.3569    -0.9274 H       
  49 H49           -5.0926    -3.8357    -1.9845 H       
  50 H50           10.7261     8.0913    -4.9566 H       
  51 H51           12.0176    10.9525    -1.6630 H       
  52 H52           -8.1789    -4.2612     1.3315 H       
@<TRIPOS>BOND
   1    1    2 2
   2    1    6 1
   3    1    5 1
   4    2    3 1
   5    3    4 2
   6    4    5 1
   7    4   18 1
   8    6   23 1
   9    6   33 1
  10    6   34 1
  11    7    8 1
  12    7   24 1
  13    7   35 1
  14    7   36 1
  15    8    9 1
  16    8   12 2
  17    9   10 1
  18   10   11 2
  19   10   13 1
  20   11   12 1
  21   13   14 am
  22   13   37 1
  23   14   15 1
  24   14   16 2
  25   15   17 1
  26   15   38 1
  27   15   39 1
  28   17   27 1
  29   17   28 1
  30   17   40 1
  31   18   19 am
  32   18   41 1
  33   19   20 1
  34   19   21 2
  35   20   22 1
  36   20   42 1
  37   20   43 1
  38   22   25 1
  39   22   26 1
  40   22   44 1
  41   23   24 1
  42   23   45 1
  43   23   46 1
  44   24   47 1
  45   24   48 1
  46   25   49 1
  47   26   31 1
  48   26   32 2
  49   27   50 1
  50   28   29 2
  51   28   30 1
  52   30   51 1
  53   31   52 1

#	End of record

