#	Name: ASD00122081
#	Creating user name:	WinNT
#	Creation time:	15. 06. 2019 18:31

#	Modifying user name:	WinNT
#	Modification time:	15. 06. 2019 18:31

#	Program:	/corina/corina34_cracker 3.40 0067  02.08.2006

@<TRIPOS>MOLECULE
ASD00122081
  33   35    0    0    0
SMALL
NO_CHARGES


@<TRIPOS>ATOM
   1 C1            -0.0169     1.3928     0.0097 C.ar    
   2 C2             0.0021    -0.0041     0.0020 C.ar    
   3 N3            -1.1593    -0.6715     0.0099 N.ar    
   4 C4            -2.3067    -0.0340     0.0247 C.ar    
   5 N5            -2.3789     1.2848     0.0320 N.ar    
   6 C6            -1.2842     2.0319     0.0306 C.ar    
   7 C7             1.3203     1.9547    -0.0001 C.2     
   8 C8             2.2944     1.0653    -0.0141 C.2     
   9 S9             1.6653    -0.5716    -0.0169 S.3     
  10 C10            1.5770     3.4397     0.0050 C.3     
  11 C11            3.7610     1.4118    -0.0270 C.3     
  12 S12           -1.4002     3.7900     0.0412 S.3     
  13 C13           -3.1995     3.9863     0.0515 C.3     
  14 C14           -3.5448     5.4532     0.0616 C.ar    
  15 C15           -3.7095     6.1334    -1.1316 C.ar    
  16 C16           -4.0264     7.4802    -1.1217 C.ar    
  17 C17           -4.1785     8.1459     0.0800 C.ar    
  18 C18           -4.0136     7.4668     1.2726 C.ar    
  19 C19           -3.7027     6.1186     1.2640 C.ar    
  20 Cl20          -3.4957     5.2658     2.7619 Cl      
  21 Cl21          -3.5179     5.2977    -2.6411 Cl      
  22 H22           -3.2222    -0.6070     0.0306 H       
  23 H23            1.6485     3.7926     1.0338 H       
  24 H24            2.5110     3.6488    -0.5166 H       
  25 H25            0.7571     3.9518    -0.4986 H       
  26 H26            4.1248     1.4903     0.9975 H       
  27 H27            4.3140     0.6317    -0.5502 H       
  28 H28            3.9049     2.3639    -0.5377 H       
  29 H29           -3.6210     3.5199    -0.8390 H       
  30 H30           -3.6119     3.5099     0.9410 H       
  31 H31           -4.1547     8.0115    -2.0532 H       
  32 H32           -4.4259     9.1971     0.0873 H       
  33 H33           -4.1319     7.9876     2.2113 H       
@<TRIPOS>BOND
   1    1    2 ar
   2    1    7 1
   3    1    6 ar
   4    2    3 ar
   5    2    9 1
   6    3    4 ar
   7    4    5 ar
   8    4   22 1
   9    5    6 ar
  10    6   12 1
  11    7    8 2
  12    7   10 1
  13    8    9 1
  14    8   11 1
  15   10   23 1
  16   10   24 1
  17   10   25 1
  18   11   26 1
  19   11   27 1
  20   11   28 1
  21   12   13 1
  22   13   14 1
  23   13   29 1
  24   13   30 1
  25   14   15 ar
  26   14   19 ar
  27   15   16 ar
  28   15   21 1
  29   16   17 ar
  30   16   31 1
  31   17   18 ar
  32   17   32 1
  33   18   19 ar
  34   18   33 1
  35   19   20 1

#	End of record

