#	Name: ASD01320038
#	Creating user name:	WinNT
#	Creation time:	15. 06. 2019 19:15

#	Modifying user name:	WinNT
#	Modification time:	15. 06. 2019 19:15

#	Program:	/corina/corina34_cracker 3.40 0067  02.08.2006

@<TRIPOS>MOLECULE
ASD01320038
  17   15    0    0    0
SMALL
NO_CHARGES


@<TRIPOS>ATOM
   1 Mn1            0.0000     0.0000     0.0000 Du      
   2 S2            10.1823    13.2623     5.9069 S.3     
   3 S3             6.5173     5.0000     5.8975 S.3     
   4 S4            11.6995    10.7148     5.8787 S.2     
   5 S5             5.0000     7.5475     5.9257 S.2     
   6 N6             9.0476    10.8608     5.9049 N.am    
   7 N7             7.6519     7.4015     5.8996 N.am    
   8 C8             9.0675     9.3959     5.8968 C.3     
   9 C9             7.6321     8.8664     5.9077 C.3     
  10 C10           10.2055    11.5505     5.8975 C.2     
  11 C11            6.4940     6.7118     5.9070 C.2     
  12 H12            7.1049     9.2274     5.0246 H       
  13 H13            7.1219     9.2179     6.8044 H       
  14 H14            9.5776     9.0444     5.0000 H       
  15 H15            9.5946     9.0349     6.7799 H       
  16 H16            8.2011    11.3343     5.9114 H       
  17 H17            8.4984     6.9280     5.8890 H       
@<TRIPOS>BOND
   1    2   10 1
   2    3   11 1
   3    4   10 2
   4    5   11 2
   5    6    8 1
   6    6   10 am
   7    6   16 1
   8    7    9 1
   9    7   11 am
  10    7   17 1
  11    8    9 1
  12    8   14 1
  13    8   15 1
  14    9   12 1
  15    9   13 1

#	End of record

