#	Name: ASD06610003
#	Creating user name:	WinNT
#	Creation time:	15. 06. 2019 21:07

#	Modifying user name:	WinNT
#	Modification time:	15. 06. 2019 21:07

#	Program:	/corina/corina34_cracker 3.40 0067  02.08.2006

@<TRIPOS>MOLECULE
ASD06610003
 337  338    0    0    0
SMALL
NO_CHARGES


@<TRIPOS>ATOM
   1 C1             0.2171     1.9375    -1.3928 C.2     
   2 O2             0.2668     0.7332    -1.5274 O.2     
   3 N3             2.6404     1.8480    -1.4859 N.am    
   4 C4             1.4895     2.7438    -1.3476 C.3     
   5 C5             1.4917     3.7577    -2.4933 C.3     
   6 C6             2.8347     4.4902    -2.5236 C.3     
   7 O7             1.2931     3.0758    -3.7333 O.3     
   8 C8            -3.3438     2.6486    -1.8134 C.2     
   9 O9            -3.1366     3.8128    -2.0830 O.2     
  10 N10           -0.9762     2.5553    -1.2893 N.am    
  11 C11           -2.2133     1.7722    -1.3393 C.3     
  12 C12           -2.5345     1.2364     0.0574 C.3     
  13 C13           -6.9926     2.4409    -1.8920 C.2     
  14 O14           -7.0058     1.4362    -1.2128 O.2     
  15 N15           -4.5852     2.1387    -1.9379 N.am    
  16 C16           -5.6842     2.9907    -2.3988 C.3     
  17 C17           -5.7010     3.0186    -3.9284 C.3     
  18 C18           -4.4447     3.6809    -4.4326 C.ar    
  19 C19           -3.3183     2.9217    -4.6891 C.ar    
  20 C20           -2.1659     3.5292    -5.1515 C.ar    
  21 C21           -2.1400     4.8958    -5.3578 C.ar    
  22 C22           -3.2667     5.6549    -5.1021 C.ar    
  23 C23           -4.4204     5.0468    -4.6438 C.ar    
  24 C24          -10.5370     2.9735    -2.6109 C.2     
  25 O25          -10.2944     3.6671    -3.5758 O.2     
  26 N26           -8.1482     3.0655    -2.1937 N.am    
  27 C27           -9.4201     2.5310    -1.7011 C.3     
  28 C28           -9.6783     3.0520    -0.2859 C.3     
  29 C29           -8.6126     2.5001     0.6631 C.3     
  30 C30           -8.8709     3.0211     2.0783 C.3     
  31 N31           -7.8505     2.4926     2.9870 N.pl3   
  32 C32           -7.8780     2.8265     4.3204 C.2     
  33 N33           -6.9701     2.3563     5.1289 N.2     
  34 N34           -8.8632     3.6563     4.8010 N.pl3   
  35 C35          -14.1893     3.0367    -2.4713 C.2     
  36 O36          -14.2059     2.7148    -1.3021 O.2     
  37 N37          -11.8055     2.5985    -2.3523 N.am    
  38 C38          -12.8912     3.0287    -3.2367 C.3     
  39 C39          -13.0012     2.0614    -4.4170 C.3     
  40 O40          -13.3899     0.7713    -3.9410 O.3     
  41 C41          -17.7437     3.2398    -3.3011 C.2     
  42 O42          -17.5301     3.1238    -4.4893 O.2     
  43 N43          -15.3319     3.4016    -3.0860 N.am    
  44 C44          -16.5938     3.4095    -2.3419 C.3     
  45 C45          -16.7403     4.7396    -1.6002 C.3     
  46 O46          -16.8536     5.8033    -2.5477 O.3     
  47 C47          -21.3738     3.6501    -3.1716 C.2     
  48 O48          -21.3326     4.1635    -2.0736 O.2     
  49 N49          -19.0094     3.2170    -2.8385 N.am    
  50 C50          -20.1272     3.0521    -3.7710 C.3     
  51 C51          -20.3534     1.5626    -4.0377 C.3     
  52 C52          -19.1352     0.9829    -4.7595 C.3     
  53 C53          -19.3614    -0.5066    -5.0261 C.3     
  54 N54          -18.1950    -1.0616    -5.7173 N.pl3   
  55 C55          -18.1696    -2.3920    -6.0631 C.2     
  56 N56          -19.1832    -3.1595    -5.7760 N.2     
  57 N57          -17.0750    -2.9128    -6.7117 N.pl3   
  58 C58          -24.9598     3.5320    -3.8714 C.2     
  59 O59          -24.8255     2.6593    -4.7029 O.2     
  60 N60          -22.5345     3.6144    -3.8557 N.am    
  61 C61          -23.7464     4.1957    -3.2730 C.3     
  62 C62          -23.7866     5.6958    -3.5710 C.3     
  63 C63          -22.6228     6.3886    -2.8592 C.3     
  64 C64          -22.6624     7.8662    -3.1527 C.2     
  65 O65          -23.5322     8.3188    -3.8588 O.2     
  66 O66          -21.7313     8.6795    -2.6298 O.3     
  67 C67          -28.5528     4.1974    -3.9755 C.2     
  68 O68          -28.4207     5.2943    -3.4753 O.2     
  69 N69          -26.1942     3.9082    -3.4828 N.am    
  70 C70          -27.3738     3.2630    -4.0646 C.3     
  71 C71          -27.6831     1.9770    -3.2955 C.3     
  72 C72          -26.5393     0.9794    -3.4890 C.3     
  73 C73          -26.8486    -0.3066    -2.7199 C.3     
  74 C74          -25.7048    -1.3042    -2.9134 C.3     
  75 N75          -26.0018    -2.5389    -2.1750 N.3     
  76 C76          -32.1768     3.9220    -4.3674 C.2     
  77 O77          -32.1337     2.7118    -4.4347 O.2     
  78 N78          -29.7539     3.8141    -4.4517 N.am    
  79 C79          -30.9000     4.7225    -4.3652 C.3     
  80 C80          -30.8907     5.6711    -5.5656 C.3     
  81 C81          -29.6551     6.5706    -5.4952 C.3     
  82 C82          -29.6458     7.5192    -6.6957 C.3     
  83 N83          -28.4626     8.3805    -6.6283 N.pl3   
  84 C84          -28.2398     9.3201    -7.6069 C.2     
  85 N85          -29.0811     9.4447    -8.5945 N.2     
  86 N86          -27.1294    10.1284    -7.5437 N.pl3   
  87 C87          -35.7356     4.6272    -4.8154 C.2     
  88 O88          -35.5235     5.7734    -5.1503 O.2     
  89 N89          -33.3666     4.5509    -4.2946 N.am    
  90 C90          -34.6078     3.7727    -4.2968 C.3     
  91 C91          -34.9268     3.3174    -2.8713 C.3     
  92 C92          -33.8434     2.3500    -2.3905 C.3     
  93 C93          -34.1624     1.8948    -0.9650 C.3     
  94 N94          -33.1250     0.9685    -0.5046 N.pl3   
  95 C95          -33.1996     0.4242     0.7557 C.2     
  96 N96          -32.2766    -0.3999     1.1654 N.2     
  97 N97          -34.2477     0.7492     1.5839 N.pl3   
  98 C98          -39.3857     4.4346    -4.8703 C.2     
  99 O99          -39.4015     3.4695    -4.1360 O.2     
 100 N100         -36.9800     4.1177    -4.9071 N.am    
 101 C101         -38.0763     4.9484    -5.4113 C.3     
 102 C102         -38.0984     4.8909    -6.9401 C.3     
 103 O103         -38.4067     3.5610    -7.3623 O.3     
 104 C104         -42.9298     4.9449    -5.6062 C.2     
 105 O105         -42.6872     5.5822    -6.6091 O.2     
 106 N106         -40.5391     5.0475    -5.2026 N.am    
 107 C107         -41.8119     4.5480    -4.6768 C.3     
 108 C108         -42.0625     5.1485    -3.2920 C.3     
 109 C109         -45.7530     6.4215    -5.6778 C.2     
 110 O110         -45.2125     6.9345    -4.7209 O.2     
 111 N111         -44.1992     4.5915    -5.3229 N.am    
 112 C112         -45.2982     5.0701    -6.1653 C.3     
 113 C113         -46.4643     4.0824    -6.0920 C.3     
 114 C114         -46.0504     2.7699    -6.7061 C.2     
 115 O115         -44.9134     2.6111    -7.0828 O.2     
 116 O116         -46.9449     1.7773    -6.8346 O.3     
 117 C117         -48.6372     8.5972    -6.2357 C.2     
 118 O118         -49.2316     7.7430    -6.8586 O.2     
 119 N119         -46.7605     7.0602    -6.3052 N.am    
 120 C120         -47.2027     8.3739    -5.8312 C.3     
 121 C121         -46.3231     9.4620    -6.4502 C.3     
 122 C122         -46.4378     9.4047    -7.9748 C.3     
 123 C123         -45.6582    10.5690    -8.5891 C.3     
 124 C124         -44.8667     9.2354    -6.0395 C.3     
 125 C125         -50.9272    11.4427    -6.3846 C.2     
 126 O126         -50.0441    12.2376    -6.1413 O.2     
 127 N127         -49.2595     9.7461    -5.9054 N.am    
 128 C128         -50.6540     9.9631    -6.2986 C.3     
 129 C129         -51.5814     9.3329    -5.2577 C.3     
 130 C130         -51.3950     7.8374    -5.2587 C.ar    
 131 C131         -50.4519     7.2579    -4.4307 C.ar    
 132 C132         -50.2809     5.8862    -4.4317 C.ar    
 133 C133         -51.0533     5.0939    -5.2604 C.ar    
 134 C134         -51.9970     5.6734    -6.0877 C.ar    
 135 C135         -52.1710     7.0448    -6.0835 C.ar    
 136 C136         -52.7755    13.8459    -5.4486 C.2     
 137 O137         -52.8050    13.0958    -4.5019 O.2     
 138 N138         -52.1529    11.8825    -6.7318 N.am    
 139 C139         -52.4186    13.3208    -6.8153 C.3     
 140 C140         -53.5822    13.5695    -7.7771 C.3     
 141 C141         -53.7790    15.0756    -7.9609 C.3     
 142 C142         -54.8585    15.3239    -9.0164 C.3     
 143 C143         -54.8597    12.9547    -7.2019 C.3     
 144 O144         -53.0607    15.1471    -5.2830 O.3     
 145 C145           3.8402     2.2109    -0.9906 C.2     
 146 O146           3.9670     3.2790    -0.4303 O.2     
 147 C147          22.0419    -0.7381     2.3543 C.3     
 148 C148          20.8399     0.1974     2.4988 C.3     
 149 C149          19.6108    -0.4485     1.8562 C.3     
 150 C150          18.4088     0.4870     2.0007 C.3     
 151 C151          17.1797    -0.1588     1.3580 C.3     
 152 C152          15.9777     0.7767     1.5025 C.3     
 153 C153          14.7486     0.1308     0.8598 C.3     
 154 C154          13.5466     1.0663     1.0043 C.3     
 155 C155          12.3175     0.4205     0.3616 C.3     
 156 C156          11.1155     1.3560     0.5061 C.3     
 157 C157           9.8864     0.7101    -0.1366 C.3     
 158 C158           8.6844     1.6456     0.0080 C.3     
 159 C159           7.4552     0.9998    -0.6347 C.3     
 160 C160           6.2532     1.9353    -0.4902 C.3     
 161 C161           5.0241     1.2894    -1.1329 C.3     
 162 H162           2.5390     0.9937    -1.9341 H       
 163 H163           1.5519     3.2711    -0.3956 H       
 164 H164           0.6881     4.4785    -2.3423 H       
 165 H165           3.6383     3.7694    -2.6746 H       
 166 H166           2.8363     5.2125    -3.3398 H       
 167 H167           2.9862     5.0103    -1.5778 H       
 168 H168           1.2832     3.6581    -4.5053 H       
 169 H169          -1.0160     3.5185    -1.1816 H       
 170 H170          -2.0871     0.9373    -2.0286 H       
 171 H171          -2.6607     2.0713     0.7467 H       
 172 H172          -3.4550     0.6537     0.0202 H       
 173 H173          -1.7168     0.6025     0.4003 H       
 174 H174          -4.7509     1.2076    -1.7223 H       
 175 H175          -5.5437     4.0025    -2.0185 H       
 176 H176          -5.7522     1.9988    -4.3099 H       
 177 H177          -6.5703     3.5792    -4.2721 H       
 178 H178          -3.3385     1.8540    -4.5280 H       
 179 H179          -1.2857     2.9362    -5.3513 H       
 180 H180          -1.2395     5.3706    -5.7183 H       
 181 H181          -3.2463     6.7227    -5.2629 H       
 182 H182          -5.3018     5.6393    -4.4475 H       
 183 H183          -8.1376     3.8691    -2.7370 H       
 184 H184          -9.3746     1.4421    -1.6847 H       
 185 H185          -9.6356     4.1411    -0.2862 H       
 186 H186         -10.6643     2.7272     0.0466 H       
 187 H187          -8.6554     1.4109     0.6635 H       
 188 H188          -7.6267     2.8249     0.3307 H       
 189 H189          -8.8281     4.1102     2.0780 H       
 190 H190          -9.8568     2.6962     2.4108 H       
 191 H191          -7.1554     1.9071     2.6479 H       
 192 H192          -6.9896     2.5919     6.0696 H       
 193 H193          -9.5388     4.0062     4.1994 H       
 194 H194          -8.8826     3.8919     5.7418 H       
 195 H195         -11.9995     2.0438    -1.5806 H       
 196 H196         -12.6819     4.0321    -3.6075 H       
 197 H197         -13.7483     2.4296    -5.1202 H       
 198 H198         -12.0358     1.9881    -4.9179 H       
 199 H199         -13.4793     0.1058    -4.6369 H       
 200 H200         -15.3187     3.6591    -4.0211 H       
 201 H201         -16.5967     2.5903    -1.6228 H       
 202 H202         -17.6341     4.7116    -0.9769 H       
 203 H203         -15.8646     4.9040    -0.9724 H       
 204 H204         -16.9498     6.6782    -2.1473 H       
 205 H205         -19.1802     3.3098    -1.8882 H       
 206 H206         -19.8960     3.5580    -4.7084 H       
 207 H207         -20.4966     1.0416    -3.0910 H       
 208 H208         -21.2391     1.4353    -4.6601 H       
 209 H209         -18.9920     1.5039    -5.7062 H       
 210 H210         -18.2495     1.1102    -4.1371 H       
 211 H211         -19.5047    -1.0275    -4.0795 H       
 212 H212         -20.2471    -0.6339    -5.6485 H       
 213 H213         -17.4407    -0.4904    -5.9309 H       
 214 H214         -19.1653    -4.0981    -6.0200 H       
 215 H215         -16.3206    -2.3417    -6.9253 H       
 216 H216         -17.0570    -3.8515    -6.9557 H       
 217 H217         -22.5674     3.2037    -4.7339 H       
 218 H218         -23.7418     4.0395    -2.1942 H       
 219 H219         -23.7017     5.8552    -4.6459 H       
 220 H220         -24.7293     6.1118    -3.2154 H       
 221 H221         -22.7077     6.2293    -1.7843 H       
 222 H222         -21.6801     5.9726    -3.2148 H       
 223 H223         -21.7980     9.6196    -2.8464 H       
 224 H224         -26.3017     4.6062    -2.8178 H       
 225 H225         -27.1784     3.0232    -5.1098 H       
 226 H226         -27.7910     2.2048    -2.2351 H       
 227 H227         -28.6104     1.5436    -3.6702 H       
 228 H228         -26.4314     0.7515    -4.5494 H       
 229 H229         -25.6120     1.4127    -3.1143 H       
 230 H230         -26.9565    -0.0788    -1.6595 H       
 231 H231         -27.7759    -0.7399    -3.0946 H       
 232 H232         -25.5969    -1.5320    -3.9739 H       
 233 H233         -24.7775    -0.8709    -2.5387 H       
 234 H234         -26.8894    -2.9256    -2.4592 H       
 235 H235         -25.2606    -3.2144    -2.2870 H       
 236 H236         -29.8596     2.9368    -4.8518 H       
 237 H237         -30.8359     5.3016    -3.4440 H       
 238 H238         -30.8653     5.0902    -6.4875 H       
 239 H239         -31.7899     6.2870    -5.5489 H       
 240 H240         -29.6805     7.1515    -4.5733 H       
 241 H241         -28.7559     5.9547    -5.5119 H       
 242 H242         -29.6203     6.9383    -7.6176 H       
 243 H243         -30.5449     8.1351    -6.6790 H       
 244 H244         -27.8365     8.2878    -5.8933 H       
 245 H245         -28.9239    10.1076    -9.2850 H       
 246 H246         -26.5033    10.0357    -6.8087 H       
 247 H247         -26.9722    10.7913    -8.2341 H       
 248 H248         -33.4011     5.5188    -4.2408 H       
 249 H249         -34.4884     2.9000    -4.9388 H       
 250 H250         -34.9586     4.1845    -2.2115 H       
 251 H251         -35.8941     2.8152    -2.8582 H       
 252 H252         -33.8116     1.4830    -3.0503 H       
 253 H253         -32.8761     2.8522    -2.4036 H       
 254 H254         -34.1941     2.7618    -0.3052 H       
 255 H255         -35.1297     1.3926    -0.9519 H       
 256 H256         -32.3854     0.7392    -1.0889 H       
 257 H257         -32.3292    -0.7839     2.0546 H       
 258 H258         -34.9346     1.3625     1.2791 H       
 259 H259         -34.3003     0.3652     2.4731 H       
 260 H260         -37.1497     3.2010    -4.6393 H       
 261 H261         -37.9293     5.9791    -5.0886 H       
 262 H262         -38.8559     5.5771    -7.3186 H       
 263 H263         -37.1213     5.1781    -7.3286 H       
 264 H264         -38.4377     3.4504    -8.3225 H       
 265 H265         -40.5264     5.8193    -5.7900 H       
 266 H266         -41.7719     3.4614    -4.5998 H       
 267 H267         -43.0095     4.7768    -2.9008 H       
 268 H268         -41.2539     4.8614    -2.6198 H       
 269 H269         -42.1025     6.2350    -3.3690 H       
 270 H270         -44.3852     4.0204    -4.5613 H       
 271 H271         -44.9559     5.1522    -7.1969 H       
 272 H272         -46.7417     3.9244    -5.0498 H       
 273 H273         -47.3172     4.4860    -6.6378 H       
 274 H274         -46.6326     0.9540    -7.2344 H       
 275 H275         -47.1928     6.6499    -7.0705 H       
 276 H276         -47.1210     8.4148    -4.7451 H       
 277 H277         -46.6521    10.4395    -6.0976 H       
 278 H278         -46.0264     8.4617    -8.3349 H       
 279 H279         -47.4865     9.4773    -8.2632 H       
 280 H280         -46.0696    11.5119    -8.2290 H       
 281 H281         -44.6095    10.4964    -8.3007 H       
 282 H282         -45.7399    10.5281    -9.6753 H       
 283 H283         -44.5377     8.2579    -6.3921 H       
 284 H284         -44.2400    10.0105    -6.4805 H       
 285 H285         -44.7850     9.2762    -4.9534 H       
 286 H286         -48.7841    10.4293    -5.4072 H       
 287 H287         -50.8331     9.5035    -7.2706 H       
 288 H288         -51.3416     9.7282    -4.2706 H       
 289 H289         -52.6167     9.5701    -5.5024 H       
 290 H290         -49.8484     7.8768    -3.7833 H       
 291 H291         -49.5436     5.4334    -3.7853 H       
 292 H292         -50.9192     4.0223    -5.2616 H       
 293 H293         -52.6002     5.0545    -6.7354 H       
 294 H294         -52.9109     7.4972    -6.7272 H       
 295 H295         -52.8593    11.2468    -6.9263 H       
 296 H296         -51.5291    13.8339    -7.1808 H       
 297 H297         -53.3609    13.1117    -8.7412 H       
 298 H298         -54.0871    15.5199    -7.0145 H       
 299 H299         -52.8419    15.5274    -8.2864 H       
 300 H300         -54.5503    14.8795    -9.9628 H       
 301 H301         -55.7955    14.8721    -8.6909 H       
 302 H302         -54.9987    16.3968    -9.1473 H       
 303 H303         -55.6887    13.1319    -7.8871 H       
 304 H304         -54.7195    11.8817    -7.0709 H       
 305 H305         -55.0810    13.4125    -6.2378 H       
 306 H306         -53.2839    15.4371    -4.3880 H       
 307 H307          21.8275    -1.6846     2.8507 H       
 308 H308          22.2371    -0.9183     1.2972 H       
 309 H309          22.9176    -0.2780     2.8122 H       
 310 H310          20.6448     0.3776     3.5560 H       
 311 H311          21.0544     1.1438     2.0025 H       
 312 H312          19.8060    -0.6286     0.7990 H       
 313 H313          19.3964    -1.3949     2.3525 H       
 314 H314          18.2136     0.6672     3.0578 H       
 315 H315          18.6233     1.4335     1.5043 H       
 316 H316          17.3749    -0.3390     0.3008 H       
 317 H317          16.9652    -1.1053     1.8543 H       
 318 H318          15.7825     0.9569     2.5596 H       
 319 H319          16.1922     1.7231     1.0062 H       
 320 H320          14.9438    -0.0493    -0.1973 H       
 321 H321          14.5341    -0.8156     1.3561 H       
 322 H322          13.3514     1.2465     2.0615 H       
 323 H323          13.7611     2.0128     0.5080 H       
 324 H324          12.5126     0.2403    -0.6955 H       
 325 H325          12.1030    -0.5260     0.8579 H       
 326 H326          10.9203     1.5361     1.5633 H       
 327 H327          11.3299     2.3024     0.0098 H       
 328 H328          10.0815     0.5300    -1.1937 H       
 329 H329           9.6719    -0.2363     0.3598 H       
 330 H330           8.4892     1.8258     1.0651 H       
 331 H331           8.8988     2.5921    -0.4884 H       
 332 H332           7.6504     0.8196    -1.6919 H       
 333 H333           7.2408     0.0533    -0.1384 H       
 334 H334           6.0581     2.1154     0.5669 H       
 335 H335           6.4677     2.8817    -0.9866 H       
 336 H336           4.8097     0.3430    -0.6366 H       
 337 H337           5.2193     1.1093    -2.1901 H       
@<TRIPOS>BOND
   1    1    2 2
   2    1    4 1
   3    1   10 am
   4    3  145 am
   5    3    4 1
   6    3  162 1
   7    4    5 1
   8    4  163 1
   9    5    6 1
  10    5    7 1
  11    5  164 1
  12    6  165 1
  13    6  166 1
  14    6  167 1
  15    7  168 1
  16    8    9 2
  17    8   11 1
  18    8   15 am
  19   10   11 1
  20   10  169 1
  21   11   12 1
  22   11  170 1
  23   12  171 1
  24   12  172 1
  25   12  173 1
  26   13   14 2
  27   13   16 1
  28   13   26 am
  29   15   16 1
  30   15  174 1
  31   16   17 1
  32   16  175 1
  33   17   18 1
  34   17  176 1
  35   17  177 1
  36   18   19 ar
  37   18   23 ar
  38   19   20 ar
  39   19  178 1
  40   20   21 ar
  41   20  179 1
  42   21   22 ar
  43   21  180 1
  44   22   23 ar
  45   22  181 1
  46   23  182 1
  47   24   25 2
  48   24   27 1
  49   24   37 am
  50   26   27 1
  51   26  183 1
  52   27   28 1
  53   27  184 1
  54   28   29 1
  55   28  185 1
  56   28  186 1
  57   29   30 1
  58   29  187 1
  59   29  188 1
  60   30   31 1
  61   30  189 1
  62   30  190 1
  63   31   32 1
  64   31  191 1
  65   32   33 2
  66   32   34 1
  67   33  192 1
  68   34  193 1
  69   34  194 1
  70   35   36 2
  71   35   38 1
  72   35   43 am
  73   37   38 1
  74   37  195 1
  75   38   39 1
  76   38  196 1
  77   39   40 1
  78   39  197 1
  79   39  198 1
  80   40  199 1
  81   41   42 2
  82   41   44 1
  83   41   49 am
  84   43   44 1
  85   43  200 1
  86   44   45 1
  87   44  201 1
  88   45   46 1
  89   45  202 1
  90   45  203 1
  91   46  204 1
  92   47   48 2
  93   47   50 1
  94   47   60 am
  95   49   50 1
  96   49  205 1
  97   50   51 1
  98   50  206 1
  99   51   52 1
 100   51  207 1
 101   51  208 1
 102   52   53 1
 103   52  209 1
 104   52  210 1
 105   53   54 1
 106   53  211 1
 107   53  212 1
 108   54   55 1
 109   54  213 1
 110   55   56 2
 111   55   57 1
 112   56  214 1
 113   57  215 1
 114   57  216 1
 115   58   59 2
 116   58   61 1
 117   58   69 am
 118   60   61 1
 119   60  217 1
 120   61   62 1
 121   61  218 1
 122   62   63 1
 123   62  219 1
 124   62  220 1
 125   63   64 1
 126   63  221 1
 127   63  222 1
 128   64   65 2
 129   64   66 1
 130   66  223 1
 131   67   68 2
 132   67   70 1
 133   67   78 am
 134   69   70 1
 135   69  224 1
 136   70   71 1
 137   70  225 1
 138   71   72 1
 139   71  226 1
 140   71  227 1
 141   72   73 1
 142   72  228 1
 143   72  229 1
 144   73   74 1
 145   73  230 1
 146   73  231 1
 147   74   75 1
 148   74  232 1
 149   74  233 1
 150   75  234 1
 151   75  235 1
 152   76   77 2
 153   76   79 1
 154   76   89 am
 155   78   79 1
 156   78  236 1
 157   79   80 1
 158   79  237 1
 159   80   81 1
 160   80  238 1
 161   80  239 1
 162   81   82 1
 163   81  240 1
 164   81  241 1
 165   82   83 1
 166   82  242 1
 167   82  243 1
 168   83   84 1
 169   83  244 1
 170   84   85 2
 171   84   86 1
 172   85  245 1
 173   86  246 1
 174   86  247 1
 175   87   88 2
 176   87   90 1
 177   87  100 am
 178   89   90 1
 179   89  248 1
 180   90   91 1
 181   90  249 1
 182   91   92 1
 183   91  250 1
 184   91  251 1
 185   92   93 1
 186   92  252 1
 187   92  253 1
 188   93   94 1
 189   93  254 1
 190   93  255 1
 191   94   95 1
 192   94  256 1
 193   95   96 2
 194   95   97 1
 195   96  257 1
 196   97  258 1
 197   97  259 1
 198   98   99 2
 199   98  101 1
 200   98  106 am
 201  100  101 1
 202  100  260 1
 203  101  102 1
 204  101  261 1
 205  102  103 1
 206  102  262 1
 207  102  263 1
 208  103  264 1
 209  104  105 2
 210  104  107 1
 211  104  111 am
 212  106  107 1
 213  106  265 1
 214  107  108 1
 215  107  266 1
 216  108  267 1
 217  108  268 1
 218  108  269 1
 219  109  110 2
 220  109  112 1
 221  109  119 am
 222  111  112 1
 223  111  270 1
 224  112  113 1
 225  112  271 1
 226  113  114 1
 227  113  272 1
 228  113  273 1
 229  114  115 2
 230  114  116 1
 231  116  274 1
 232  117  118 2
 233  117  120 1
 234  117  127 am
 235  119  120 1
 236  119  275 1
 237  120  121 1
 238  120  276 1
 239  121  122 1
 240  121  124 1
 241  121  277 1
 242  122  123 1
 243  122  278 1
 244  122  279 1
 245  123  280 1
 246  123  281 1
 247  123  282 1
 248  124  283 1
 249  124  284 1
 250  124  285 1
 251  125  126 2
 252  125  128 1
 253  125  138 am
 254  127  128 1
 255  127  286 1
 256  128  129 1
 257  128  287 1
 258  129  130 1
 259  129  288 1
 260  129  289 1
 261  130  131 ar
 262  130  135 ar
 263  131  132 ar
 264  131  290 1
 265  132  133 ar
 266  132  291 1
 267  133  134 ar
 268  133  292 1
 269  134  135 ar
 270  134  293 1
 271  135  294 1
 272  136  137 2
 273  136  139 1
 274  136  144 1
 275  138  139 1
 276  138  295 1
 277  139  140 1
 278  139  296 1
 279  140  141 1
 280  140  143 1
 281  140  297 1
 282  141  142 1
 283  141  298 1
 284  141  299 1
 285  142  300 1
 286  142  301 1
 287  142  302 1
 288  143  303 1
 289  143  304 1
 290  143  305 1
 291  144  306 1
 292  145  146 2
 293  145  161 1
 294  147  148 1
 295  147  307 1
 296  147  308 1
 297  147  309 1
 298  148  149 1
 299  148  310 1
 300  148  311 1
 301  149  150 1
 302  149  312 1
 303  149  313 1
 304  150  151 1
 305  150  314 1
 306  150  315 1
 307  151  152 1
 308  151  316 1
 309  151  317 1
 310  152  153 1
 311  152  318 1
 312  152  319 1
 313  153  154 1
 314  153  320 1
 315  153  321 1
 316  154  155 1
 317  154  322 1
 318  154  323 1
 319  155  156 1
 320  155  324 1
 321  155  325 1
 322  156  157 1
 323  156  326 1
 324  156  327 1
 325  157  158 1
 326  157  328 1
 327  157  329 1
 328  158  159 1
 329  158  330 1
 330  158  331 1
 331  159  160 1
 332  159  332 1
 333  159  333 1
 334  160  161 1
 335  160  334 1
 336  160  335 1
 337  161  336 1
 338  161  337 1

#	End of record

