#	Name: ASD02038557
#	Creating user name:	WinNT
#	Creation time:	15. 06. 2019 20:17

#	Modifying user name:	WinNT
#	Modification time:	15. 06. 2019 20:17

#	Program:	/corina/corina34_cracker 3.40 0067  02.08.2006

@<TRIPOS>MOLECULE
ASD02038557
  50   53    0    0    0
SMALL
NO_CHARGES


@<TRIPOS>ATOM
   1 C1            -0.0179     1.4666     0.0101 C.3     
   2 N2             0.0021    -0.0041     0.0020 N.am    
   3 C3            -0.7052    -0.7105     0.9060 C.2     
   4 C4             0.8140    -0.6834    -1.0191 C.3     
   5 C5             2.2274    -0.0922    -0.9896 C.3     
   6 N6             2.1471     1.3678    -1.1301 N.3     
   7 C7             3.4195     1.9280    -1.2720 C.ar    
   8 C8             3.5623     3.3020    -1.4189 C.ar    
   9 C9             4.8206     3.8536    -1.5590 C.ar    
  10 C10            5.9393     3.0391    -1.5531 C.ar    
  11 C11            5.8005     1.6691    -1.4069 C.ar    
  12 C12            4.5435     1.1127    -1.2606 C.ar    
  13 C13            1.4284     1.9731    -0.0010 C.3     
  14 C14           -0.6704    -2.2168     0.8795 C.3     
  15 O15           -1.4938    -2.7308     1.9283 O.3     
  16 C16           -1.5730    -4.0825     2.0444 C.ar    
  17 C17           -2.3538    -4.6483     3.0398 C.ar    
  18 Cl18           7.5194     3.7360    -1.7300 Cl      
  19 O19           -1.3697    -0.1338     1.7408 O.2     
  20 C20           -2.4328    -6.0290     3.1549 C.ar    
  21 C21           -1.7294    -6.8392     2.2727 C.ar    
  22 C22           -0.9521    -6.2717     1.2817 C.ar    
  23 C23           -0.8764    -4.8971     1.1623 C.ar    
  24 N24           -3.2198    -6.6062     4.1562 N.am    
  25 C25           -3.0285    -7.8873     4.5206 C.2     
  26 C26           -1.9545    -8.7195     3.8734 C.3     
  27 C27           -1.8172    -8.3381     2.3995 C.3     
  28 O28           -3.7296    -8.3770     5.3807 O.2     
  29 Cl29           7.2062     0.6506    -1.4000 Cl      
  30 H30           -0.5401     1.8305    -0.8747 H       
  31 H31           -0.5231     1.8210     0.9086 H       
  32 H32            0.8587    -1.7504    -0.8010 H       
  33 H33            0.3717    -0.5261    -2.0028 H       
  34 H34            2.7060    -0.3407    -0.0423 H       
  35 H35            2.8116    -0.5052    -1.8120 H       
  36 H36            2.6898     3.9385    -1.4239 H       
  37 H37            4.9316     4.9217    -1.6736 H       
  38 H38            4.4352     0.0443    -1.1461 H       
  39 H39            1.4330     3.0580    -0.1064 H       
  40 H40            1.9180     1.6958     0.9325 H       
  41 H41           -1.0423    -2.5720    -0.0815 H       
  42 H42            0.3547    -2.5591     1.0215 H       
  43 H43           -2.8992    -4.0161     3.7248 H       
  44 H44           -0.4056    -6.9033     0.5971 H       
  45 H45           -0.2680    -4.4559     0.3867 H       
  46 H46           -3.9081    -6.0793     4.5915 H       
  47 H47           -1.0061    -8.5455     4.3818 H       
  48 H48           -2.2174    -9.7744     3.9516 H       
  49 H49           -2.6862    -8.6982     1.8488 H       
  50 H50           -0.9145    -8.7911     1.9897 H       
@<TRIPOS>BOND
   1    1    2 1
   2    1   13 1
   3    1   30 1
   4    1   31 1
   5    2    3 am
   6    2    4 1
   7    3   14 1
   8    3   19 2
   9    4    5 1
  10    4   32 1
  11    4   33 1
  12    5    6 1
  13    5   34 1
  14    5   35 1
  15    6    7 1
  16    6   13 1
  17    7    8 ar
  18    7   12 ar
  19    8    9 ar
  20    8   36 1
  21    9   10 ar
  22    9   37 1
  23   10   11 ar
  24   10   18 1
  25   11   12 ar
  26   11   29 1
  27   12   38 1
  28   13   39 1
  29   13   40 1
  30   14   15 1
  31   14   41 1
  32   14   42 1
  33   15   16 1
  34   16   17 ar
  35   16   23 ar
  36   17   20 ar
  37   17   43 1
  38   20   21 ar
  39   20   24 1
  40   21   22 ar
  41   21   27 1
  42   22   23 ar
  43   22   44 1
  44   23   45 1
  45   24   25 am
  46   24   46 1
  47   25   26 1
  48   25   28 2
  49   26   27 1
  50   26   47 1
  51   26   48 1
  52   27   49 1
  53   27   50 1

#	End of record

