#	Name: ASD04230106
#	Creating user name:	WinNT
#	Creation time:	15. 06. 2019 20:48

#	Modifying user name:	WinNT
#	Modification time:	15. 06. 2019 20:48

#	Program:	/corina/corina34_cracker 3.40 0067  02.08.2006

@<TRIPOS>MOLECULE
ASD04230106
  52   55    0    0    0
SMALL
NO_CHARGES


@<TRIPOS>ATOM
   1 C1             1.5408     4.6984     1.7354 C.ar    
   2 C2             2.5488     5.3922     2.3892 C.ar    
   3 C3             3.8047     4.8653     2.4866 C.ar    
   4 C4             4.0860     3.6167     1.9134 C.ar    
   5 C5             3.0597     2.8944     1.2780 C.ar    
   6 C6             1.7872     3.4540     1.1828 C.ar    
   7 C7             5.3962     3.0747     1.9740 C.2     
   8 C8             5.6652     1.9384     1.2227 C.2     
   9 C9             4.5697     1.4026     0.3940 C.2     
  10 O10            3.3004     1.6568     0.7828 O.3     
  11 C11            6.9895     1.2955     1.2519 C.2     
  12 N12            7.2200     0.1933     0.5114 N.am    
  13 O13            7.8754     1.7592     1.9444 O.2     
  14 C14            8.5068    -0.3513     0.4498 C.ar    
  15 C15            8.6754    -1.7277     0.3612 C.ar    
  16 C16            9.9455    -2.2696     0.2996 C.ar    
  17 C17           11.0535    -1.4469     0.3264 C.ar    
  18 C18           10.8939    -0.0645     0.4156 C.ar    
  19 C19            9.6148     0.4827     0.4715 C.ar    
  20 C20           12.0834     0.8209     0.4450 C.ar    
  21 O21            4.8010     0.7525    -0.6082 O.2     
  22 C22           12.1626     1.9147    -0.4131 C.ar    
  23 C23           13.2718     2.7360    -0.3822 C.ar    
  24 C24           14.3069     2.4771     0.4987 C.ar    
  25 C25           14.2399     1.3948     1.3552 C.ar    
  26 C26           13.1291     0.5644     1.3393 C.ar    
  27 N27           13.0594    -0.5307     2.2045 N.am    
  28 C28           14.1780    -1.2140     2.5181 C.2     
  29 O29           15.2563    -0.8285     2.1183 O.2     
  30 C30           14.0890    -2.4569     3.3656 C.3     
  31 O31            0.7908     2.7792     0.5497 O.3     
  32 C32           -0.4877     3.4149     0.4909 C.3     
  33 F33           -0.3714     4.6345    -0.1846 F       
  34 F34           -1.3884     2.5888    -0.1898 F       
  35 F35           -0.9548     3.6439     1.7896 F       
  36 H36            0.5542     5.1314     1.6609 H       
  37 H37            2.3383     6.3578     2.8247 H       
  38 H38            4.5807     5.4097     3.0042 H       
  39 H39            6.1603     3.5321     2.5850 H       
  40 H40            6.4935    -0.2223     0.0212 H       
  41 H41            7.8118    -2.3759     0.3406 H       
  42 H42           10.0713    -3.3401     0.2308 H       
  43 H43           12.0443    -1.8740     0.2784 H       
  44 H44            9.4860     1.5527     0.5403 H       
  45 H45           11.3570     2.1201    -1.1025 H       
  46 H46           13.3320     3.5838    -1.0486 H       
  47 H47           15.1716     3.1240     0.5168 H       
  48 H48           15.0512     1.1977     2.0403 H       
  49 H49           12.2060    -0.7991     2.5794 H       
  50 H50           13.0477    -2.6444     3.6274 H       
  51 H51           14.4818    -3.3065     2.8069 H       
  52 H52           14.6733    -2.3190     4.2754 H       
@<TRIPOS>BOND
   1    1    2 ar
   2    1    6 ar
   3    1   36 1
   4    2    3 ar
   5    2   37 1
   6    3    4 ar
   7    3   38 1
   8    4    5 ar
   9    4    7 1
  10    5    6 ar
  11    5   10 1
  12    6   31 1
  13    7    8 2
  14    7   39 1
  15    8    9 1
  16    8   11 1
  17    9   10 1
  18    9   21 2
  19   11   12 am
  20   11   13 2
  21   12   14 1
  22   12   40 1
  23   14   15 ar
  24   14   19 ar
  25   15   16 ar
  26   15   41 1
  27   16   17 ar
  28   16   42 1
  29   17   18 ar
  30   17   43 1
  31   18   19 ar
  32   18   20 1
  33   19   44 1
  34   20   22 ar
  35   20   26 ar
  36   22   23 ar
  37   22   45 1
  38   23   24 ar
  39   23   46 1
  40   24   25 ar
  41   24   47 1
  42   25   26 ar
  43   25   48 1
  44   26   27 1
  45   27   28 am
  46   27   49 1
  47   28   29 2
  48   28   30 1
  49   30   50 1
  50   30   51 1
  51   30   52 1
  52   31   32 1
  53   32   33 1
  54   32   34 1
  55   32   35 1

#	End of record

