#	Name: ASD01910600
#	Creating user name:	WinNT
#	Creation time:	15. 06. 2019 19:56

#	Modifying user name:	WinNT
#	Modification time:	15. 06. 2019 19:56

#	Program:	/corina/corina34_cracker 3.40 0067  02.08.2006

@<TRIPOS>MOLECULE
ASD01910600
  44   47    0    0    0
SMALL
NO_CHARGES


@<TRIPOS>ATOM
   1 C1             0.0267     1.3050    -0.0558 C.ar    
   2 C2             0.0596    -0.0809    -0.0646 C.ar    
   3 C3             1.2735    -0.7503    -0.0703 C.ar    
   4 C4             2.4553    -0.0402    -0.0676 C.ar    
   5 C5             2.4279     1.3558    -0.0592 C.ar    
   6 C6             1.2024     2.0250    -0.0530 C.ar    
   7 C7             3.6910     2.1220    -0.0562 C.2     
   8 N8             3.8163     3.4376    -0.0485 N.2     
   9 C9             5.1375     3.6731    -0.0488 C.2     
  10 N10            5.7427     2.5221    -0.0566 N.2     
  11 O11            4.9347     1.6176    -0.0551 O.3     
  12 C12            5.8000     5.0266    -0.0420 C.3     
  13 C13            6.6740     5.1612     1.2070 C.3     
  14 C14            7.3215     6.5477     1.2317 C.3     
  15 C15            8.2136     6.7123    -0.0028 C.3     
  16 N16            7.4127     6.4416    -1.2045 N.am    
  17 C17            6.6748     5.1740    -1.2909 C.3     
  18 C18            7.3561     7.3389    -2.2085 C.2     
  19 C19            8.0261     8.6463    -2.0683 C.ar    
  20 O20            6.7530     7.0713    -3.2297 O.2     
  21 C21            9.3859     8.7075    -1.7543 C.ar    
  22 C22           10.0066     9.9308    -1.6250 C.ar    
  23 C23            9.2852    11.1017    -1.8058 C.ar    
  24 C24            7.9362    11.0502    -2.1173 C.ar    
  25 C25            7.3032     9.8299    -2.2550 C.ar    
  26 F26            9.9005    12.2975    -1.6770 F       
  27 F27           -1.0954    -0.7816    -0.0673 F       
  28 F28            5.9879     9.7796    -2.5593 F       
  29 H29           -0.9217     1.8216    -0.0555 H       
  30 H30            1.2935    -1.8301    -0.0765 H       
  31 H31            3.4004    -0.5628    -0.0717 H       
  32 H32            1.1756     3.1046    -0.0468 H       
  33 H33            5.0370     5.8051    -0.0378 H       
  34 H34            6.0580     5.0322     2.0969 H       
  35 H35            7.4517     4.3976     1.1901 H       
  36 H36            6.5446     7.3122     1.2236 H       
  37 H37            7.9252     6.6513     2.1332 H       
  38 H38            8.5986     7.7313    -0.0422 H       
  39 H39            9.0436     6.0077     0.0496 H       
  40 H40            7.3793     4.3439    -1.3435 H       
  41 H41            6.0445     5.1780    -2.1802 H       
  42 H42            9.9497     7.7974    -1.6127 H       
  43 H43           11.0578     9.9781    -1.3819 H       
  44 H44            7.3796    11.9652    -2.2565 H       
@<TRIPOS>BOND
   1    1    2 ar
   2    1    6 ar
   3    1   29 1
   4    2    3 ar
   5    2   27 1
   6    3    4 ar
   7    3   30 1
   8    4    5 ar
   9    4   31 1
  10    5    6 ar
  11    5    7 1
  12    6   32 1
  13    7    8 2
  14    7   11 1
  15    8    9 1
  16    9   10 2
  17    9   12 1
  18   10   11 1
  19   12   13 1
  20   12   17 1
  21   12   33 1
  22   13   14 1
  23   13   34 1
  24   13   35 1
  25   14   15 1
  26   14   36 1
  27   14   37 1
  28   15   16 1
  29   15   38 1
  30   15   39 1
  31   16   17 1
  32   16   18 am
  33   17   40 1
  34   17   41 1
  35   18   19 1
  36   18   20 2
  37   19   21 ar
  38   19   25 ar
  39   21   22 ar
  40   21   42 1
  41   22   23 ar
  42   22   43 1
  43   23   24 ar
  44   23   26 1
  45   24   25 ar
  46   24   44 1
  47   25   28 1

#	End of record

