#	Name: ASD06610045
#	Creating user name:	WinNT
#	Creation time:	15. 06. 2019 21:07

#	Modifying user name:	WinNT
#	Modification time:	15. 06. 2019 21:07

#	Program:	/corina/corina34_cracker 3.40 0067  02.08.2006

@<TRIPOS>MOLECULE
ASD06610045
 274  274    0    0    0
SMALL
NO_CHARGES


@<TRIPOS>ATOM
   1 C1             0.1524     2.4294    -0.4822 C.2     
   2 O2             0.2233     1.2257    -0.6126 O.2     
   3 N3             2.5781     2.3774    -0.5291 N.am    
   4 C4             1.4110     3.2555    -0.4150 C.3     
   5 C5             1.4194     4.2666    -1.5633 C.3     
   6 C6             2.6153     5.1731    -1.4256 C.ar    
   7 C7             3.8137     4.8320    -2.0243 C.ar    
   8 C8             4.9107     5.6636    -1.8980 C.ar    
   9 C9             4.8093     6.8364    -1.1735 C.ar    
  10 C10            3.6106     7.1780    -0.5756 C.ar    
  11 C11            2.5124     6.3486    -0.7055 C.ar    
  12 C12           -3.4105     3.0841    -0.9723 C.2     
  13 O13           -3.2162     4.2507    -1.2411 O.2     
  14 N14           -1.0521     3.0289    -0.4031 N.am    
  15 C15           -2.2757     2.2265    -0.4745 C.3     
  16 C16           -2.6152     1.6891     0.9173 C.3     
  17 C17           -1.5215     0.7199     1.3705 C.3     
  18 C18           -1.8609     0.1826     2.7623 C.3     
  19 N19           -0.8137    -0.7454     3.1962 N.pl3   
  20 C20           -0.9034    -1.3577     4.4239 C.2     
  21 N21           -1.9202    -1.1126     5.2017 N.2     
  22 N22            0.0794    -2.2286     4.8312 N.pl3   
  23 C23           -7.0535     2.8194    -1.1197 C.2     
  24 O24           -7.0640     1.8163    -0.4381 O.2     
  25 N25           -4.6412     2.5546    -1.1190 N.am    
  26 C26           -5.7443     3.3884    -1.6030 C.3     
  27 C27           -5.7324     3.4123    -3.1328 C.3     
  28 O28           -6.0026     2.1008    -3.6318 O.3     
  29 C29          -10.5914     3.2952    -1.9072 C.2     
  30 O30          -10.3412     3.9902    -2.8692 O.2     
  31 N31           -8.2126     3.4254    -1.4450 N.am    
  32 C32           -9.4852     2.8723    -0.9752 C.3     
  33 C33           -9.7784     3.3926     0.4335 C.3     
  34 O34           -9.9750     4.8073     0.3874 O.3     
  35 C35          -14.2462     3.3020    -1.8372 C.2     
  36 O36          -14.2800     2.9826    -0.6676 O.2     
  37 N37          -11.8585     2.9012    -1.6717 N.am    
  38 C38          -12.9338     3.3123    -2.5778 C.3     
  39 C39          -13.0062     2.3406    -3.7574 C.3     
  40 C40          -11.7213     2.4424    -4.5817 C.3     
  41 C41          -11.7937     1.4707    -5.7612 C.3     
  42 N42          -10.5633     1.5682    -6.5505 N.pl3   
  43 C43          -10.3993     0.7839    -7.6677 C.2     
  44 N44           -9.3047     0.8706    -8.3699 N.2     
  45 N45          -11.3900    -0.0920    -8.0442 N.pl3   
  46 C46          -17.7868     3.4478    -2.7349 C.2     
  47 O47          -17.5489     3.3322    -3.9185 O.2     
  48 N48          -15.3824     3.6476    -2.4745 N.am    
  49 C49          -16.6582     3.6376    -1.7545 C.3     
  50 C50          -16.8394     4.9671    -1.0194 C.3     
  51 C51          -15.7655     5.1025     0.0619 C.3     
  52 C52          -15.9440     6.4121     0.7860 C.2     
  53 O53          -16.8384     7.1603     0.4696 O.2     
  54 O54          -15.1094     6.7472     1.7824 O.3     
  55 C55          -21.4247     3.8019    -2.6755 C.2     
  56 O56          -21.4124     4.3185    -1.5783 O.2     
  57 N57          -19.0606     3.4064    -2.2964 N.am    
  58 C58          -20.1578     3.2219    -3.2496 C.3     
  59 C59          -20.3557     1.7284    -3.5164 C.3     
  60 C60          -19.1152     1.1660    -4.2134 C.3     
  61 C61          -19.3132    -0.3274    -4.4803 C.3     
  62 C62          -18.0727    -0.8898    -5.1773 C.3     
  63 N63          -18.2628    -2.3237    -5.4335 N.3     
  64 C64          -24.9945     3.6264    -3.4431 C.2     
  65 O65          -24.8308     2.7539    -4.2695 O.2     
  66 N66          -22.5715     3.7465    -3.3815 N.am    
  67 C67          -23.8031     4.3103    -2.8234 C.3     
  68 C68          -23.8609     5.8089    -3.1262 C.3     
  69 C69          -22.7217     6.5214    -2.3943 C.3     
  70 C70          -22.7794     8.0200    -2.6971 C.3     
  71 N71          -21.6887     8.7022    -1.9963 N.pl3   
  72 C72          -21.5379    10.0632    -2.1188 C.2     
  73 N73          -22.3655    10.7466    -2.8583 N.2     
  74 N74          -20.5143    10.7034    -1.4611 N.pl3   
  75 C75          -28.5947     4.2356    -3.6172 C.2     
  76 O76          -28.4892     5.3357    -3.1175 O.2     
  77 N77          -26.2418     3.9843    -3.0789 N.am    
  78 C78          -27.3999     3.3194    -3.6813 C.3     
  79 C79          -27.7038     2.0306    -2.9148 C.3     
  80 C80          -26.5412     1.0505    -3.0838 C.3     
  81 C81          -26.8451    -0.2383    -2.3173 C.3     
  82 N82          -25.7319    -1.1768    -2.4792 N.pl3   
  83 C83          -25.7803    -2.4113    -1.8759 C.2     
  84 N84          -26.8166    -2.7467    -1.1600 N.2     
  85 N85          -24.7356    -3.2920    -2.0278 N.pl3   
  86 C86          -32.2059     3.9030    -4.0771 C.2     
  87 O87          -32.1427     2.6935    -4.1403 O.2     
  88 N88          -29.7805     3.8326    -4.1151 N.am    
  89 C89          -30.9419     4.7233    -4.0528 C.3     
  90 C90          -30.9245     5.6690    -5.2554 C.3     
  91 O91          -31.0909     4.9143    -6.4573 O.3     
  92 C92          -35.7660     4.5517    -4.5946 C.2     
  93 O93          -35.5653     5.7002    -4.9284 O.2     
  94 N94          -33.4065     4.5135    -4.0287 N.am    
  95 C95          -34.6352     3.7160    -4.0523 C.3     
  96 C96          -34.9742     3.2593    -2.6320 C.3     
  97 C97          -38.7182     5.5480    -3.9266 C.2     
  98 O98          -38.2518     5.3505    -2.8246 O.2     
  99 N99          -37.0004     4.0227    -4.7085 N.am    
 100 C100         -38.1222     4.8650    -5.1305 C.3     
 101 C101         -39.1871     3.9967    -5.8035 C.3     
 102 C102         -38.6329     3.4228    -7.0820 C.2     
 103 O103         -37.4779     3.6153    -7.3798 O.2     
 104 O104         -39.4225     2.6979    -7.8899 O.3     
 105 C105         -41.3499     6.1247    -2.2504 C.2     
 106 O106         -41.5580     5.0287    -2.7145 O.2     
 107 N107         -39.7696     6.3782    -4.0745 N.am    
 108 C108         -40.3489     7.0421    -2.9041 C.3     
 109 C109         -41.0483     8.3303    -3.3427 C.3     
 110 C110         -41.5449     9.0865    -2.1088 C.3     
 111 C111         -42.1328    10.4323    -2.5378 C.3     
 112 C112         -42.2370     7.9846    -4.2417 C.3     
 113 O113         -42.0103     6.5250    -1.1525 O.3     
 114 C114           3.7625     2.7601    -0.0120 C.2     
 115 O115           3.8620     3.8314     0.5478 O.2     
 116 C116          21.9407     0.1024     3.6861 C.3     
 117 C117          20.7219     1.0195     3.8052 C.3     
 118 C118          19.5154     0.3530     3.1410 C.3     
 119 C119          18.2965     1.2701     3.2602 C.3     
 120 C120          17.0900     0.6037     2.5960 C.3     
 121 C121          15.8711     1.5207     2.7151 C.3     
 122 C122          14.6646     0.8543     2.0509 C.3     
 123 C123          13.4457     1.7713     2.1701 C.3     
 124 C124          12.2392     1.1049     1.5059 C.3     
 125 C125          11.0203     2.0220     1.6250 C.3     
 126 C126           9.8138     1.3555     0.9608 C.3     
 127 C127           8.5949     2.2726     1.0799 C.3     
 128 C128           7.3884     1.6062     0.4157 C.3     
 129 C129           6.1695     2.5232     0.5349 C.3     
 130 C130           4.9630     1.8568    -0.1293 C.3     
 131 H131           2.4985     1.5206    -0.9767 H       
 132 H132           1.4471     3.7860     0.5365 H       
 133 H133           1.4730     3.7362    -2.5140 H       
 134 H134           0.5067     4.8616    -1.5301 H       
 135 H135           3.8930     3.9157    -2.5904 H       
 136 H136           5.8472     5.3967    -2.3651 H       
 137 H137           5.6665     7.4858    -1.0742 H       
 138 H138           3.5314     8.0942    -0.0092 H       
 139 H139           1.5749     6.6172    -0.2414 H       
 140 H140          -1.1088     3.9916    -0.2988 H       
 141 H141          -2.1236     1.3919    -1.1590 H       
 142 H142          -2.6800     2.5188     1.6212 H       
 143 H143          -3.5714     1.1671     0.8819 H       
 144 H144          -1.4567    -0.1097     0.6666 H       
 145 H145          -0.5653     1.2419     1.4059 H       
 146 H146          -1.9257     1.0123     3.4662 H       
 147 H147          -2.8172    -0.3394     2.7269 H       
 148 H148          -0.0570    -0.9279     2.6174 H       
 149 H149          -1.9835    -1.5446     6.0679 H       
 150 H150           0.8360    -2.4110     4.2523 H       
 151 H151           0.0161    -2.6606     5.6973 H       
 152 H152          -4.7966     1.6216    -0.9040 H       
 153 H153          -5.6267     4.4031    -1.2228 H       
 154 H154          -6.4964     4.1020    -3.4913 H       
 155 H155          -4.7537     3.7399    -3.4834 H       
 156 H156          -6.0105     2.0411    -4.5969 H       
 157 H157          -8.2042     4.2276    -1.9901 H       
 158 H158          -9.4232     1.7843    -0.9550 H       
 159 H159         -10.6786     2.9130     0.8179 H       
 160 H160          -8.9372     3.1638     1.0877 H       
 161 H161         -10.1657     5.2061     1.2475 H       
 162 H162         -12.0586     2.3453    -0.9024 H       
 163 H163         -12.7330     4.3179    -2.9473 H       
 164 H164         -13.1183     1.3229    -3.3834 H       
 165 H165         -13.8612     2.5934    -4.3845 H       
 166 H166         -11.6092     3.4601    -4.9556 H       
 167 H167         -10.8664     2.1895    -3.9546 H       
 168 H168         -11.9058     0.4530    -5.3873 H       
 169 H169         -12.6486     1.7235    -6.3883 H       
 170 H170          -9.8644     2.1861    -6.2849 H       
 171 H171          -9.1890     0.3172    -9.1581 H       
 172 H172         -12.2046    -0.1565    -7.5216 H       
 173 H173         -11.2742    -0.6453    -8.8324 H       
 174 H174         -15.3553     3.9030    -3.4099 H       
 175 H175         -16.6621     2.8202    -1.0334 H       
 176 H176         -16.7469     5.7898    -1.7284 H       
 177 H177         -17.8261     4.9951    -0.5570 H       
 178 H178         -15.8580     4.2798     0.7709 H       
 179 H179         -14.7788     5.0745    -0.4004 H       
 180 H180         -15.2636     7.5972     2.2170 H       
 181 H181         -19.2509     3.4988    -1.3498 H       
 182 H182         -19.9167     3.7291    -4.1838 H       
 183 H183         -20.5089     1.2076    -2.5712 H       
 184 H184         -21.2274     1.5859    -4.1552 H       
 185 H185         -18.9620     1.6869    -5.1586 H       
 186 H186         -18.2436     1.3086    -3.5746 H       
 187 H187         -19.4664    -0.8483    -3.5351 H       
 188 H188         -20.1848    -0.4700    -5.1191 H       
 189 H189         -17.9195    -0.3690    -6.1225 H       
 190 H190         -17.2010    -0.7473    -4.5385 H       
 191 H191         -19.1015    -2.4871    -5.9701 H       
 192 H192         -17.4564    -2.7188    -5.8936 H       
 193 H193         -22.5813     3.3333    -4.2590 H       
 194 H194         -23.8166     4.1568    -1.7444 H       
 195 H195         -23.7580     5.9670    -4.1998 H       
 196 H196         -24.8165     6.2110    -2.7897 H       
 197 H197         -22.8246     6.3633    -1.3208 H       
 198 H198         -21.7661     6.1193    -2.7308 H       
 199 H199         -22.6765     8.1780    -3.7707 H       
 200 H200         -23.7351     8.4221    -2.3606 H       
 201 H201         -21.0728     8.1936    -1.4459 H       
 202 H202         -22.2592    11.7069    -2.9447 H       
 203 H203         -19.8984    10.1948    -0.9107 H       
 204 H204         -20.4080    11.6636    -1.5475 H       
 205 H205         -26.3726     4.6821    -2.4180 H       
 206 H206         -27.1809     3.0802    -4.7219 H       
 207 H207         -27.8354     2.2593    -1.8572 H       
 208 H208         -28.6170     1.5820    -3.3059 H       
 209 H209         -26.4096     0.8218    -4.1414 H       
 210 H210         -25.6280     1.4990    -2.6927 H       
 211 H211         -26.9767    -0.0096    -1.2597 H       
 212 H212         -27.7583    -0.6869    -2.7084 H       
 213 H213         -24.9607    -0.9273    -3.0119 H       
 214 H214         -26.8507    -3.6176    -0.7344 H       
 215 H215         -23.9644    -3.0425    -2.5606 H       
 216 H216         -24.7697    -4.1630    -1.6022 H       
 217 H217         -29.8649     2.9528    -4.5148 H       
 218 H218         -30.9043     5.3055    -3.1321 H       
 219 H219         -31.7375     6.3892    -5.1631 H       
 220 H220         -29.9722     6.1982    -5.2876 H       
 221 H221         -31.0897     5.4507    -7.2619 H       
 222 H222         -33.4570     5.4808    -3.9781 H       
 223 H223         -34.4900     2.8437    -4.6896 H       
 224 H224         -35.1194     4.1316    -1.9947 H       
 225 H225         -35.8884     2.6660    -2.6495 H       
 226 H226         -34.1563     2.6549    -2.2397 H       
 227 H227         -37.1459     3.0842    -4.5112 H       
 228 H228         -37.7672     5.6164    -5.8358 H       
 229 H229         -39.4704     3.1848    -5.1336 H       
 230 H230         -40.0633     4.6050    -6.0280 H       
 231 H231         -39.0223     2.3507    -8.6988 H       
 232 H232         -40.1426     6.5362    -4.9558 H       
 233 H233         -39.5578     7.2820    -2.1937 H       
 234 H234         -40.3458     8.9556    -3.8937 H       
 235 H235         -42.3129     8.4981    -1.6067 H       
 236 H236         -40.7120     9.2549    -1.4262 H       
 237 H237         -41.3649    11.0208    -3.0399 H       
 238 H238         -42.9658    10.2640    -3.2204 H       
 239 H239         -42.4866    10.9711    -1.6588 H       
 240 H240         -42.9395     7.3593    -3.6907 H       
 241 H241         -42.7353     8.9024    -4.5542 H       
 242 H242         -41.8832     7.4459    -5.1207 H       
 243 H243         -42.6424     5.9019    -0.7687 H       
 244 H244          22.1588    -0.0772     2.6334 H       
 245 H245          22.8003     0.5772     4.1593 H       
 246 H246          21.7316    -0.8461     4.1808 H       
 247 H247          20.5038     1.1991     4.8580 H       
 248 H248          20.9310     1.9679     3.3105 H       
 249 H249          19.7334     0.1734     2.0883 H       
 250 H250          19.3062    -0.5954     3.6358 H       
 251 H251          18.0784     1.4497     4.3129 H       
 252 H252          18.5057     2.2186     2.7655 H       
 253 H253          17.3080     0.4240     1.5432 H       
 254 H254          16.8808    -0.3448     3.0907 H       
 255 H255          15.6531     1.7004     3.7679 H       
 256 H256          16.0803     2.4692     2.2204 H       
 257 H257          14.8826     0.6746     0.9982 H       
 258 H258          14.4554    -0.0942     2.5456 H       
 259 H259          13.2277     1.9510     3.2228 H       
 260 H260          13.6549     2.7198     1.6753 H       
 261 H261          12.4572     0.9253     0.4531 H       
 262 H262          12.0300     0.1564     2.0006 H       
 263 H263          10.8023     2.2016     2.6777 H       
 264 H264          11.2295     2.9704     1.1303 H       
 265 H265          10.0318     1.1759    -0.0919 H       
 266 H266           9.6046     0.4071     1.4555 H       
 267 H267           8.3769     2.4522     2.1327 H       
 268 H268           8.8041     3.2211     0.5852 H       
 269 H269           7.6065     1.4265    -0.6370 H       
 270 H270           7.1792     0.6577     0.9105 H       
 271 H271           5.9515     2.7029     1.5876 H       
 272 H272           6.3787     3.4717     0.0402 H       
 273 H273           4.7539     0.9083     0.3654 H       
 274 H274           5.1811     1.6771    -1.1821 H       
@<TRIPOS>BOND
   1    1    2 2
   2    1    4 1
   3    1   14 am
   4    3  114 am
   5    3    4 1
   6    3  131 1
   7    4    5 1
   8    4  132 1
   9    5    6 1
  10    5  133 1
  11    5  134 1
  12    6    7 ar
  13    6   11 ar
  14    7    8 ar
  15    7  135 1
  16    8    9 ar
  17    8  136 1
  18    9   10 ar
  19    9  137 1
  20   10   11 ar
  21   10  138 1
  22   11  139 1
  23   12   13 2
  24   12   15 1
  25   12   25 am
  26   14   15 1
  27   14  140 1
  28   15   16 1
  29   15  141 1
  30   16   17 1
  31   16  142 1
  32   16  143 1
  33   17   18 1
  34   17  144 1
  35   17  145 1
  36   18   19 1
  37   18  146 1
  38   18  147 1
  39   19   20 1
  40   19  148 1
  41   20   21 2
  42   20   22 1
  43   21  149 1
  44   22  150 1
  45   22  151 1
  46   23   24 2
  47   23   26 1
  48   23   31 am
  49   25   26 1
  50   25  152 1
  51   26   27 1
  52   26  153 1
  53   27   28 1
  54   27  154 1
  55   27  155 1
  56   28  156 1
  57   29   30 2
  58   29   32 1
  59   29   37 am
  60   31   32 1
  61   31  157 1
  62   32   33 1
  63   32  158 1
  64   33   34 1
  65   33  159 1
  66   33  160 1
  67   34  161 1
  68   35   36 2
  69   35   38 1
  70   35   48 am
  71   37   38 1
  72   37  162 1
  73   38   39 1
  74   38  163 1
  75   39   40 1
  76   39  164 1
  77   39  165 1
  78   40   41 1
  79   40  166 1
  80   40  167 1
  81   41   42 1
  82   41  168 1
  83   41  169 1
  84   42   43 1
  85   42  170 1
  86   43   44 2
  87   43   45 1
  88   44  171 1
  89   45  172 1
  90   45  173 1
  91   46   47 2
  92   46   49 1
  93   46   57 am
  94   48   49 1
  95   48  174 1
  96   49   50 1
  97   49  175 1
  98   50   51 1
  99   50  176 1
 100   50  177 1
 101   51   52 1
 102   51  178 1
 103   51  179 1
 104   52   53 2
 105   52   54 1
 106   54  180 1
 107   55   56 2
 108   55   58 1
 109   55   66 am
 110   57   58 1
 111   57  181 1
 112   58   59 1
 113   58  182 1
 114   59   60 1
 115   59  183 1
 116   59  184 1
 117   60   61 1
 118   60  185 1
 119   60  186 1
 120   61   62 1
 121   61  187 1
 122   61  188 1
 123   62   63 1
 124   62  189 1
 125   62  190 1
 126   63  191 1
 127   63  192 1
 128   64   65 2
 129   64   67 1
 130   64   77 am
 131   66   67 1
 132   66  193 1
 133   67   68 1
 134   67  194 1
 135   68   69 1
 136   68  195 1
 137   68  196 1
 138   69   70 1
 139   69  197 1
 140   69  198 1
 141   70   71 1
 142   70  199 1
 143   70  200 1
 144   71   72 1
 145   71  201 1
 146   72   73 2
 147   72   74 1
 148   73  202 1
 149   74  203 1
 150   74  204 1
 151   75   76 2
 152   75   78 1
 153   75   88 am
 154   77   78 1
 155   77  205 1
 156   78   79 1
 157   78  206 1
 158   79   80 1
 159   79  207 1
 160   79  208 1
 161   80   81 1
 162   80  209 1
 163   80  210 1
 164   81   82 1
 165   81  211 1
 166   81  212 1
 167   82   83 1
 168   82  213 1
 169   83   84 2
 170   83   85 1
 171   84  214 1
 172   85  215 1
 173   85  216 1
 174   86   87 2
 175   86   89 1
 176   86   94 am
 177   88   89 1
 178   88  217 1
 179   89   90 1
 180   89  218 1
 181   90   91 1
 182   90  219 1
 183   90  220 1
 184   91  221 1
 185   92   93 2
 186   92   95 1
 187   92   99 am
 188   94   95 1
 189   94  222 1
 190   95   96 1
 191   95  223 1
 192   96  224 1
 193   96  225 1
 194   96  226 1
 195   97   98 2
 196   97  100 1
 197   97  107 am
 198   99  100 1
 199   99  227 1
 200  100  101 1
 201  100  228 1
 202  101  102 1
 203  101  229 1
 204  101  230 1
 205  102  103 2
 206  102  104 1
 207  104  231 1
 208  105  106 2
 209  105  108 1
 210  105  113 1
 211  107  108 1
 212  107  232 1
 213  108  109 1
 214  108  233 1
 215  109  110 1
 216  109  112 1
 217  109  234 1
 218  110  111 1
 219  110  235 1
 220  110  236 1
 221  111  237 1
 222  111  238 1
 223  111  239 1
 224  112  240 1
 225  112  241 1
 226  112  242 1
 227  113  243 1
 228  114  115 2
 229  114  130 1
 230  116  117 1
 231  116  244 1
 232  116  245 1
 233  116  246 1
 234  117  118 1
 235  117  247 1
 236  117  248 1
 237  118  119 1
 238  118  249 1
 239  118  250 1
 240  119  120 1
 241  119  251 1
 242  119  252 1
 243  120  121 1
 244  120  253 1
 245  120  254 1
 246  121  122 1
 247  121  255 1
 248  121  256 1
 249  122  123 1
 250  122  257 1
 251  122  258 1
 252  123  124 1
 253  123  259 1
 254  123  260 1
 255  124  125 1
 256  124  261 1
 257  124  262 1
 258  125  126 1
 259  125  263 1
 260  125  264 1
 261  126  127 1
 262  126  265 1
 263  126  266 1
 264  127  128 1
 265  127  267 1
 266  127  268 1
 267  128  129 1
 268  128  269 1
 269  128  270 1
 270  129  130 1
 271  129  271 1
 272  129  272 1
 273  130  273 1
 274  130  274 1

#	End of record

