#	Name: ASD07301334
#	Creating user name:	WinNT
#	Creation time:	15. 06. 2019 21:11

#	Modifying user name:	WinNT
#	Modification time:	15. 06. 2019 21:11

#	Program:	/corina/corina34_cracker 3.40 0067  02.08.2006

@<TRIPOS>MOLECULE
ASD07301334
  26   26    0    0    0
SMALL
NO_CHARGES


@<TRIPOS>ATOM
   1 C1            -0.5382     0.5496     1.2999 C.3     
   2 C2             0.0024    -0.0038     0.0067 C.2     
   3 C3             1.3298    -0.6211    -0.0274 C.2     
   4 C4             1.4663    -2.0720     0.1151 C.2     
   5 C5             2.8324    -2.7073     0.0800 C.3     
   6 O6            -0.6622     0.0622    -1.0065 O.2     
   7 O7             0.4794    -2.7629     0.2614 O.2     
   8 N8             2.4054     0.1319    -0.1869 N.2     
   9 N9             2.2802     1.3953    -0.4154 N.pl3   
  10 C10            4.4318     4.2665    -1.2036 C.ar    
  11 C11            3.2918     3.5361    -0.9376 C.ar    
  12 C12            3.4062     2.1686    -0.6880 C.ar    
  13 C13            4.6776     1.5960    -0.7180 C.ar    
  14 C14            5.7672     2.3970    -0.9915 C.ar    
  15 N15            5.6172     3.6873    -1.2229 N.ar    
  16 H16            0.1545     0.3222     2.1102 H       
  17 H17           -0.6534     1.6300     1.2128 H       
  18 H18           -1.5068     0.0969     1.5121 H       
  19 H19            3.5890    -1.9348    -0.0577 H       
  20 H20            3.0140    -3.2305     1.0188 H       
  21 H21            2.8823    -3.4162    -0.7465 H       
  22 H22            1.4020     1.8067    -0.3974 H       
  23 H23            4.3523     5.3250    -1.4025 H       
  24 H24            2.3246     4.0164    -0.9231 H       
  25 H25            4.8074     0.5405    -0.5295 H       
  26 H26            6.7555     1.9622    -1.0168 H       
@<TRIPOS>BOND
   1    1    2 1
   2    1   16 1
   3    1   17 1
   4    1   18 1
   5    2    3 1
   6    2    6 2
   7    3    4 1
   8    3    8 2
   9    4    5 1
  10    4    7 2
  11    5   19 1
  12    5   20 1
  13    5   21 1
  14    8    9 1
  15    9   12 1
  16    9   22 1
  17   10   11 ar
  18   10   15 ar
  19   10   23 1
  20   11   12 ar
  21   11   24 1
  22   12   13 ar
  23   13   14 ar
  24   13   25 1
  25   14   15 ar
  26   14   26 1

#	End of record

