#	Name: ASD01910387
#	Creating user name:	WinNT
#	Creation time:	15. 06. 2019 19:55

#	Modifying user name:	WinNT
#	Modification time:	15. 06. 2019 19:55

#	Program:	/corina/corina34_cracker 3.40 0067  02.08.2006

@<TRIPOS>MOLECULE
ASD01910387
  51   54    0    0    0
SMALL
NO_CHARGES


@<TRIPOS>ATOM
   1 C1            -7.0132   -11.0936    -0.0991 C.ar    
   2 C2            -5.7836   -10.3596    -0.0882 C.1     
   3 C3            -4.7756    -9.7579    -0.0792 C.1     
   4 C4            -3.5461    -9.0239    -0.0682 C.ar    
   5 C5            -2.4496    -9.4840    -0.8059 C.ar    
   6 C6            -1.2774    -8.7833    -0.7953 C.ar    
   7 C7            -1.1726    -7.6067    -0.0474 C.ar    
   8 C8            -2.2676    -7.1467     0.6901 C.ar    
   9 C9            -3.4423    -7.8431     0.6755 C.ar    
  10 C10            0.0949    -6.8500    -0.0362 C.2     
  11 O11            0.0790    -5.6363    -0.1053 O.2     
  12 N12            1.2698    -7.5047     0.0508 N.am    
  13 C13           -8.1103   -10.6368     0.6365 C.ar    
  14 C14           -9.2912   -11.3491     0.6211 C.ar    
  15 C15           -9.3912   -12.5135    -0.1199 C.ar    
  16 C16           -8.3092   -12.9720    -0.8507 C.ar    
  17 C17           -7.1238   -12.2671    -0.8501 C.ar    
  18 C18            2.5423    -6.7793    -0.0655 C.3     
  19 C19            3.4052    -7.1015     1.1583 C.3     
  20 C20            3.5590    -8.6195     1.2860 C.3     
  21 C21            2.1825    -9.2587     1.4832 C.3     
  22 C22            1.3039    -8.9568     0.2699 C.3     
  23 C23            4.4469    -8.9356     2.4917 C.3     
  24 C24            4.6018   -10.4510     2.6307 C.3     
  25 C25            3.2246   -11.0861     2.8339 C.3     
  26 C26            2.3383   -10.7743     1.6268 C.3     
  27 H27           -2.5301   -10.3933    -1.3831 H       
  28 H28           -0.4310    -9.1383    -1.3646 H       
  29 H29           -2.1858    -6.2381     1.2682 H       
  30 H30           -4.2881    -7.4876     1.2453 H       
  31 H31           -8.0334    -9.7286     1.2158 H       
  32 H32          -10.1398   -10.9974     1.1890 H       
  33 H33          -10.3183   -13.0675    -0.1276 H       
  34 H34           -8.3946   -13.8818    -1.4264 H       
  35 H35           -6.2802   -12.6261    -1.4209 H       
  36 H36            3.0608    -7.0934    -0.9713 H       
  37 H37            2.3497    -5.7071    -0.1049 H       
  38 H38            4.3880    -6.6451     1.0406 H       
  39 H39            2.9261    -6.7079     2.0548 H       
  40 H40            4.0179    -9.0161     0.3804 H       
  41 H41            1.7156    -8.8497     2.3793 H       
  42 H42            0.2935    -9.3239     0.4503 H       
  43 H43            1.7194    -9.4441    -0.6122 H       
  44 H44            5.4277    -8.4819     2.3491 H       
  45 H45            3.9889    -8.5331     3.3952 H       
  46 H46            5.0583   -10.8542     1.7267 H       
  47 H47            5.2354   -10.6745     3.4890 H       
  48 H48            3.3336   -12.1659     2.9357 H       
  49 H49            2.7665   -10.6801     3.7358 H       
  50 H50            1.3577   -11.2282     1.7694 H       
  51 H51            2.7977   -11.1790     0.7249 H       
@<TRIPOS>BOND
   1    1    2 1
   2    1   13 ar
   3    1   17 ar
   4    2    3 3
   5    3    4 1
   6    4    5 ar
   7    4    9 ar
   8    5    6 ar
   9    5   27 1
  10    6    7 ar
  11    6   28 1
  12    7    8 ar
  13    7   10 1
  14    8    9 ar
  15    8   29 1
  16    9   30 1
  17   10   11 2
  18   10   12 am
  19   12   18 1
  20   12   22 1
  21   13   14 ar
  22   13   31 1
  23   14   15 ar
  24   14   32 1
  25   15   16 ar
  26   15   33 1
  27   16   17 ar
  28   16   34 1
  29   17   35 1
  30   18   19 1
  31   18   36 1
  32   18   37 1
  33   19   20 1
  34   19   38 1
  35   19   39 1
  36   20   21 1
  37   20   23 1
  38   20   40 1
  39   21   22 1
  40   21   26 1
  41   21   41 1
  42   22   42 1
  43   22   43 1
  44   23   24 1
  45   23   44 1
  46   23   45 1
  47   24   25 1
  48   24   46 1
  49   24   47 1
  50   25   26 1
  51   25   48 1
  52   25   49 1
  53   26   50 1
  54   26   51 1

#	End of record

