#	Name: ASD01911923
#	Creating user name:	WinNT
#	Creation time:	15. 06. 2019 19:58

#	Modifying user name:	WinNT
#	Modification time:	15. 06. 2019 19:58

#	Program:	/corina/corina34_cracker 3.40 0067  02.08.2006

@<TRIPOS>MOLECULE
ASD01911923
  36   38    0    0    0
SMALL
NO_CHARGES


@<TRIPOS>ATOM
   1 C1            -1.0504    -0.5010    -2.0861 C.ar    
   2 C2            -1.0550     0.0491    -0.8083 C.ar    
   3 C3            -1.0152     1.4343    -0.6867 C.ar    
   4 N4            -0.9747     2.1740    -1.7827 N.ar    
   5 C5            -0.9718     1.6151    -2.9762 C.ar    
   6 N6            -1.0086     0.3071    -3.1326 N.ar    
   7 O7            -1.0977    -0.7464     0.2929 O.3     
   8 C8            -1.1389    -2.0917     0.1068 C.ar    
   9 C9             0.0165    -2.7810    -0.2345 C.ar    
  10 C10           -0.0241    -4.1513    -0.4239 C.ar    
  11 C11           -1.2166    -4.8372    -0.2733 C.ar    
  12 C12           -2.3746    -4.1509     0.0681 C.ar    
  13 C13           -2.3336    -2.7771     0.2633 C.ar    
  14 N14           -3.5797    -4.8438     0.2203 N.am    
  15 C15           -4.7454    -4.2460    -0.0962 C.2     
  16 C16           -6.0243    -4.9379     0.1624 C.ar    
  17 O17           -4.7442    -3.1370    -0.5946 O.2     
  18 C18           -7.2362    -4.3188    -0.1655 C.ar    
  19 F19            1.1016    -4.8201    -0.7565 F       
  20 C20           -8.4352    -4.9678     0.0771 C.ar    
  21 C21           -8.4430    -6.2253     0.6421 C.ar    
  22 C22           -7.2389    -6.8546     0.9743 C.ar    
  23 C23           -6.0278    -6.2113     0.7283 C.ar    
  24 C24           -7.2507    -8.1609     1.5610 C.1     
  25 N25           -7.2601    -9.1971     2.0265 N.1     
  26 F26           -7.2361    -3.0864    -0.7190 F       
  27 H27           -1.0760    -1.5721    -2.2216 H       
  28 H28           -1.0177     1.8991     0.2882 H       
  29 H29           -0.9385     2.2472    -3.8512 H       
  30 H30            0.9480    -2.2474    -0.3528 H       
  31 H31           -1.2468    -5.9066    -0.4218 H       
  32 H32           -3.2331    -2.2417     0.5292 H       
  33 H33           -3.5767    -5.7547     0.5537 H       
  34 H34           -9.3681    -4.4867    -0.1770 H       
  35 H35           -9.3816    -6.7258     0.8290 H       
  36 H36           -5.0959    -6.6940     0.9831 H       
@<TRIPOS>BOND
   1    1    2 ar
   2    1    6 ar
   3    1   27 1
   4    2    3 ar
   5    2    7 1
   6    3    4 ar
   7    3   28 1
   8    4    5 ar
   9    5    6 ar
  10    5   29 1
  11    7    8 1
  12    8    9 ar
  13    8   13 ar
  14    9   10 ar
  15    9   30 1
  16   10   11 ar
  17   10   19 1
  18   11   12 ar
  19   11   31 1
  20   12   13 ar
  21   12   14 1
  22   13   32 1
  23   14   15 am
  24   14   33 1
  25   15   16 1
  26   15   17 2
  27   16   18 ar
  28   16   23 ar
  29   18   20 ar
  30   18   26 1
  31   20   21 ar
  32   20   34 1
  33   21   22 ar
  34   21   35 1
  35   22   23 ar
  36   22   24 1
  37   23   36 1
  38   24   25 3

#	End of record

