#	Name: ASD01840191
#	Creating user name:	WinNT
#	Creation time:	15. 06. 2019 19:37

#	Modifying user name:	WinNT
#	Modification time:	15. 06. 2019 19:37

#	Program:	/corina/corina34_cracker 3.40 0067  02.08.2006

@<TRIPOS>MOLECULE
ASD01840191
  44   47    0    0    0
SMALL
NO_CHARGES


@<TRIPOS>ATOM
   1 C1            -1.6298     1.8042    -0.7040 C.3     
   2 C2            -1.3215     0.3063    -0.5285 C.3     
   3 N3            -1.0017    -0.3807    -1.7823 N.am    
   4 C4            -1.2022    -1.7089    -1.8931 C.2     
   5 C5            -0.8830    -2.3946    -3.1445 C.2     
   6 O6            -1.6491    -2.3377    -0.9512 O.2     
   7 C7            -1.0486    -3.7240    -3.3547 C.2     
   8 C8            -0.6588    -4.1657    -4.6809 C.ar    
   9 C9            -0.1873    -3.1122    -5.4757 C.ar    
  10 S10           -0.2431    -1.6050    -4.5725 S.3     
  11 C11           -0.6877    -5.4556    -5.2583 C.ar    
  12 C12           -0.2528    -5.5932    -6.5582 C.ar    
  13 N13            0.1758    -4.5393    -7.2315 N.ar    
  14 N14            0.2083    -3.3631    -6.7259 N.ar    
  15 C15           -0.2652    -6.9496    -7.2147 C.3     
  16 C16           -1.1793    -6.6454    -4.4748 C.3     
  17 N17           -1.5467    -4.5859    -2.3870 N.pl3   
  18 C18           -0.0816     0.7555     0.2655 C.3     
  19 N19           -0.1834     2.0263    -0.4855 N.3     
  20 C20            0.0340     3.1234     0.3540 C.ar    
  21 C21            1.2038     3.2080     1.1009 C.ar    
  22 C22           -0.9151     4.1330     0.4390 C.ar    
  23 C23           -0.6985     5.2166     1.2687 C.ar    
  24 C24            0.4622     5.2982     2.0147 C.ar    
  25 C25            1.4150     4.2962     1.9303 C.ar    
  26 F26            2.5507     4.3810     2.6571 F       
  27 F27            2.1322     2.2301     1.0177 F       
  28 H28           -1.9683     2.0685    -1.7059 H       
  29 H29           -2.2613     2.2177     0.0824 H       
  30 H30           -2.0595    -0.2262     0.0714 H       
  31 H31           -0.6456     0.1203    -2.5327 H       
  32 H32           -1.2234    -7.1044    -7.7108 H       
  33 H33            0.5376    -7.0048    -7.9499 H       
  34 H34           -0.1189    -7.7207    -6.4583 H       
  35 H35           -2.2663    -6.6973    -4.5369 H       
  36 H36           -0.7478    -7.5566    -4.8890 H       
  37 H37           -0.8794    -6.5427    -3.4319 H       
  38 H38           -1.5306    -4.3271    -1.4523 H       
  39 H39           -1.9108    -5.4470    -2.6456 H       
  40 H40           -0.2603     0.8622     1.3355 H       
  41 H41            0.8170     0.1819     0.0383 H       
  42 H42           -1.8224     4.0717    -0.1435 H       
  43 H43           -1.4375     6.0015     1.3341 H       
  44 H44            0.6284     6.1467     2.6618 H       
@<TRIPOS>BOND
   1    1    2 1
   2    1   19 1
   3    1   28 1
   4    1   29 1
   5    2    3 1
   6    2   18 1
   7    2   30 1
   8    3    4 am
   9    3   31 1
  10    4    5 1
  11    4    6 2
  12    5    7 2
  13    5   10 1
  14    7    8 1
  15    7   17 1
  16    8    9 ar
  17    8   11 ar
  18    9   10 1
  19    9   14 ar
  20   11   12 ar
  21   11   16 1
  22   12   13 ar
  23   12   15 1
  24   13   14 ar
  25   15   32 1
  26   15   33 1
  27   15   34 1
  28   16   35 1
  29   16   36 1
  30   16   37 1
  31   17   38 1
  32   17   39 1
  33   18   19 1
  34   18   40 1
  35   18   41 1
  36   19   20 1
  37   20   22 ar
  38   20   21 ar
  39   21   25 ar
  40   21   27 1
  41   22   23 ar
  42   22   42 1
  43   23   24 ar
  44   23   43 1
  45   24   25 ar
  46   24   44 1
  47   25   26 1

#	End of record

