#	Name: ASD01908331
#	Creating user name:	WinNT
#	Creation time:	15. 06. 2019 19:54

#	Modifying user name:	WinNT
#	Modification time:	15. 06. 2019 19:54

#	Program:	/corina/corina34_cracker 3.40 0067  02.08.2006

@<TRIPOS>MOLECULE
ASD01908331
  45   48    0    0    0
SMALL
NO_CHARGES


@<TRIPOS>ATOM
   1 S1            -0.0199     1.6930     0.0160 S.3     
   2 N2             0.0041    -0.0056    -0.0204 N.2     
   3 C3             1.2683    -0.3432    -0.0529 C.2     
   4 N4             2.1596     0.6302    -0.0503 N.2     
   5 C5             1.6944     1.8594    -0.0149 C.2     
   6 N6             2.4250     3.0346    -0.0052 N.pl3   
   7 C7             1.7697     4.2658    -0.0978 C.ar    
   8 C8             2.2666     5.3716     0.5804 C.ar    
   9 C9             1.6169     6.5866     0.4864 C.ar    
  10 C10            0.4727     6.7031    -0.2815 C.ar    
  11 C11           -0.0247     5.6042    -0.9579 C.ar    
  12 C12            0.6233     4.3876    -0.8728 C.ar    
  13 N13            2.9112    -3.5793    -0.1539 N.am    
  14 N14            1.5648    -3.9627    -0.1349 N.2     
  15 C15            0.8267    -2.8852    -0.0973 C.2     
  16 C16            1.6841    -1.7676    -0.0909 C.2     
  17 C17            2.9664    -2.2327    -0.1265 C.2     
  18 C18           -0.6795    -2.8450    -0.0662 C.3     
  19 S19            4.2118    -4.6036    -0.1954 S.o2    
  20 O20            5.3103    -3.8793     0.3411 O.2     
  21 O21            3.7637    -5.8428     0.3364 O.2     
  22 N22            4.6215    -5.7713    -3.8924 N.pl3   
  23 N23            5.4862    -4.6692    -3.8803 N.2     
  24 C24            5.4666    -4.1467    -2.6810 C.2     
  25 C25            4.5901    -4.8976    -1.8910 C.2     
  26 C26            4.0837    -5.8910    -2.6602 C.2     
  27 C27            6.2534    -2.9436    -2.2285 C.3     
  28 C28            4.3451    -6.6372    -5.0414 C.3     
  29 Cl29           2.9469    -7.1009    -2.1524 Cl      
  30 H30            3.3919     3.0040     0.0659 H       
  31 H31            3.1597     5.2812     1.1808 H       
  32 H32            2.0027     7.4468     1.0134 H       
  33 H33           -0.0339     7.6543    -0.3527 H       
  34 H34           -0.9187     5.6985    -1.5564 H       
  35 H35            0.2367     3.5308    -1.4046 H       
  36 H36            3.8632    -1.6309    -0.1312 H       
  37 H37           -1.0220    -2.8566     0.9685 H       
  38 H38           -1.0289    -1.9353    -0.5544 H       
  39 H39           -1.0770    -3.7142    -0.5902 H       
  40 H40            5.6668    -2.0408    -2.3987 H       
  41 H41            6.4789    -3.0355    -1.1661 H       
  42 H42            7.1836    -2.8844    -2.7936 H       
  43 H43            5.0538    -7.4652    -5.0511 H       
  44 H44            3.3304    -7.0282    -4.9658 H       
  45 H45            4.4453    -6.0623    -5.9620 H       
@<TRIPOS>BOND
   1    1    2 1
   2    1    5 1
   3    2    3 2
   4    3    4 1
   5    3   16 1
   6    4    5 2
   7    5    6 1
   8    6    7 1
   9    6   30 1
  10    7    8 ar
  11    7   12 ar
  12    8    9 ar
  13    8   31 1
  14    9   10 ar
  15    9   32 1
  16   10   11 ar
  17   10   33 1
  18   11   12 ar
  19   11   34 1
  20   12   35 1
  21   13   14 1
  22   13   17 1
  23   13   19 am
  24   14   15 2
  25   15   16 1
  26   15   18 1
  27   16   17 2
  28   17   36 1
  29   18   37 1
  30   18   38 1
  31   18   39 1
  32   19   20 2
  33   19   21 2
  34   19   25 1
  35   22   23 1
  36   22   26 1
  37   22   28 1
  38   23   24 2
  39   24   25 1
  40   24   27 1
  41   25   26 2
  42   26   29 1
  43   27   40 1
  44   27   41 1
  45   27   42 1
  46   28   43 1
  47   28   44 1
  48   28   45 1

#	End of record

