#	Name: ASD02198075
#	Creating user name:	WinNT
#	Creation time:	15. 06. 2019 20:18

#	Modifying user name:	WinNT
#	Modification time:	15. 06. 2019 20:18

#	Program:	/corina/corina34_cracker 3.40 0067  02.08.2006

@<TRIPOS>MOLECULE
ASD02198075
  43   46    0    0    0
SMALL
NO_CHARGES


@<TRIPOS>ATOM
   1 C1            -0.0156     1.3774    -0.0287 C.2     
   2 C2             0.0075    -0.0009    -0.0141 C.2     
   3 C3            -1.1779    -0.8009     0.0589 C.1     
   4 S4             1.5647     2.0105    -0.1216 S.3     
   5 C5             2.2773     0.4054    -0.1418 C.2     
   6 C6             1.2891    -0.5455    -0.0773 C.2     
   7 C7             3.6607     0.1334    -0.2144 C.2     
   8 C8             4.6246     1.2403    -0.2797 C.2     
   9 O9             4.0560    -1.0215    -0.2230 O.2     
  10 N10            1.5406    -1.9100    -0.0753 N.pl3   
  11 N11           -1.1607     2.1397     0.0194 N.pl3   
  12 N12           -2.1184    -1.4355     0.1168 N.1     
  13 C13            5.9810     1.0990    -0.3523 C.2     
  14 C14           -1.0705     3.5299     0.1320 C.ar    
  15 C15           -0.0723     4.1009     0.9137 C.ar    
  16 C16            0.0216     5.4749     1.0280 C.ar    
  17 C17           -0.8748     6.2901     0.3670 C.ar    
  18 C18           -1.8811     5.7271    -0.4206 C.ar    
  19 C19           -1.9727     4.3399    -0.5403 C.ar    
  20 C20            6.6774     2.2769    -0.4037 C.2     
  21 C21            5.9038     3.3997    -0.3741 C.2     
  22 S22            4.2068     2.9483    -0.2838 S.3     
  23 C23            6.4141     4.7852    -0.4172 C.ar    
  24 C24            5.5181     5.8547    -0.3804 C.ar    
  25 C25            6.0120     7.1466    -0.4211 C.ar    
  26 C26            7.3857     7.3291    -0.4974 C.ar    
  27 C27            8.2171     6.2240    -0.5304 C.ar    
  28 N28            7.7231     5.0040    -0.4853 N.ar    
  29 C29           -2.8124     6.5706    -1.1075 C.1     
  30 N30           -3.5513     7.2397    -1.6523 N.1     
  31 H31            2.4534    -2.2350    -0.1210 H       
  32 H32            0.8036    -2.5389    -0.0281 H       
  33 H33           -2.0302     1.7121    -0.0249 H       
  34 H34            6.4662     0.1343    -0.3676 H       
  35 H35            0.6319     3.4683     1.4337 H       
  36 H36            0.7989     5.9124     1.6370 H       
  37 H37           -0.7982     7.3635     0.4593 H       
  38 H38           -2.7485     3.8985    -1.1483 H       
  39 H39            7.7551     2.3138    -0.4627 H       
  40 H40            4.4546     5.6765    -0.3212 H       
  41 H41            5.3432     7.9942    -0.3945 H       
  42 H42            7.8019     8.3251    -0.5311 H       
  43 H43            9.2863     6.3636    -0.5902 H       
@<TRIPOS>BOND
   1    1    2 2
   2    1    4 1
   3    1   11 1
   4    2    3 1
   5    2    6 1
   6    3   12 3
   7    4    5 1
   8    5    6 2
   9    5    7 1
  10    6   10 1
  11    7    8 1
  12    7    9 2
  13    8   13 2
  14    8   22 1
  15   10   31 1
  16   10   32 1
  17   11   14 1
  18   11   33 1
  19   13   20 1
  20   13   34 1
  21   14   15 ar
  22   14   19 ar
  23   15   16 ar
  24   15   35 1
  25   16   17 ar
  26   16   36 1
  27   17   18 ar
  28   17   37 1
  29   18   19 ar
  30   18   29 1
  31   19   38 1
  32   20   21 2
  33   20   39 1
  34   21   22 1
  35   21   23 1
  36   23   24 ar
  37   23   28 ar
  38   24   25 ar
  39   24   40 1
  40   25   26 ar
  41   25   41 1
  42   26   27 ar
  43   26   42 1
  44   27   28 ar
  45   27   43 1
  46   29   30 3

#	End of record

