#	Name: ASD01150032
#	Creating user name:	WinNT
#	Creation time:	15. 06. 2019 19:03

#	Modifying user name:	WinNT
#	Modification time:	15. 06. 2019 19:03

#	Program:	/corina/corina34_cracker 3.40 0067  02.08.2006

@<TRIPOS>MOLECULE
ASD01150032
  45   48    0    0    0
SMALL
NO_CHARGES


@<TRIPOS>ATOM
   1 C1            -0.0330     1.3123     0.3911 C.ar    
   2 N2            -0.0154    -0.0056     0.3897 N.ar    
   3 C3            -1.1339    -0.7052     0.2761 C.ar    
   4 C4            -2.3453    -0.0287     0.1566 C.ar    
   5 C5            -2.3220     1.3784     0.1623 C.ar    
   6 N6            -1.1534     1.9984     0.2861 N.ar    
   7 C7            -3.6233    -0.7699     0.0265 C.ar    
   8 C8            -3.7485    -1.7881    -0.9169 C.ar    
   9 C9            -4.9399    -2.4748    -1.0332 C.ar    
  10 C10           -6.0088    -2.1538    -0.2160 C.ar    
  11 C11           -5.8903    -1.1442     0.7221 C.ar    
  12 C12           -4.7018    -0.4547     0.8512 C.ar    
  13 C13           -7.3076    -2.9066    -0.3485 C.3     
  14 F14           -7.2916    -4.0174     0.5019 F       
  15 F15           -8.3709    -2.0672     0.0008 F       
  16 F16           -7.4660    -3.3341    -1.6711 F       
  17 C17            1.2694     2.0588     0.5231 C.3     
  18 N18           -3.4950     2.1028     0.0467 N.pl3   
  19 C19           -3.4553     3.5672     0.0542 C.3     
  20 C20           -4.7018     4.1437    -0.6552 C.3     
  21 C21           -5.4306     4.9766     0.4432 C.3     
  22 C22           -5.9966     3.9104     1.4302 C.3     
  23 C23           -4.7501     3.3339     2.1397 C.3     
  24 C24           -3.5483     4.1061     1.5145 C.3     
  25 C25           -4.2040     5.5100     1.2644 C.3     
  26 H26           -1.1071    -1.7849     0.2759 H       
  27 H27           -2.9148    -2.0391    -1.5560 H       
  28 H28           -5.0381    -3.2640    -1.7639 H       
  29 H29           -6.7281    -0.8978     1.3576 H       
  30 H30           -4.6103     0.3334     1.5839 H       
  31 H31            1.6857     2.2412    -0.4676 H       
  32 H32            1.0935     3.0107     1.0242 H       
  33 H33            1.9712     1.4644     1.1083 H       
  34 H34           -4.3437     1.6411    -0.0392 H       
  35 H35           -2.5449     3.9244    -0.4272 H       
  36 H36           -4.4043     4.7859    -1.4841 H       
  37 H37           -5.3442     3.3376    -1.0096 H       
  38 H38           -6.1432     5.7191     0.0839 H       
  39 H39           -6.6632     4.3789     2.1543 H       
  40 H40           -6.5194     3.1258     0.8832 H       
  41 H41           -4.8039     3.5190     3.2125 H       
  42 H42           -4.6600     2.2659     1.9415 H       
  43 H43           -2.6216     4.0904     2.0881 H       
  44 H44           -3.5639     6.1597     0.6676 H       
  45 H45           -4.5116     5.9889     2.1940 H       
@<TRIPOS>BOND
   1    1    2 ar
   2    1   17 1
   3    1    6 ar
   4    2    3 ar
   5    3    4 ar
   6    3   26 1
   7    4    5 ar
   8    4    7 1
   9    5    6 ar
  10    5   18 1
  11    7    8 ar
  12    7   12 ar
  13    8    9 ar
  14    8   27 1
  15    9   10 ar
  16    9   28 1
  17   10   11 ar
  18   10   13 1
  19   11   12 ar
  20   11   29 1
  21   12   30 1
  22   13   14 1
  23   13   15 1
  24   13   16 1
  25   17   31 1
  26   17   32 1
  27   17   33 1
  28   18   19 1
  29   18   34 1
  30   19   20 1
  31   19   24 1
  32   19   35 1
  33   20   21 1
  34   20   36 1
  35   20   37 1
  36   21   22 1
  37   21   25 1
  38   21   38 1
  39   22   23 1
  40   22   39 1
  41   22   40 1
  42   23   24 1
  43   23   41 1
  44   23   42 1
  45   24   25 1
  46   24   43 1
  47   25   44 1
  48   25   45 1

#	End of record

