#	Name: ASD01410710
#	Creating user name:	WinNT
#	Creation time:	15. 06. 2019 19:18

#	Modifying user name:	WinNT
#	Modification time:	15. 06. 2019 19:18

#	Program:	/corina/corina34_cracker 3.40 0067  02.08.2006

@<TRIPOS>MOLECULE
ASD01410710
  76   81    0    0    0
SMALL
NO_CHARGES


@<TRIPOS>ATOM
   1 N1            -0.0206     1.6654     0.0112 N.am    
   2 C2            -2.1633     2.0290    -2.3274 C.3     
   3 N3            -3.9761     1.5482    -3.8912 N.am    
   4 S4             0.0021    -0.0041     0.0020 S.o2    
   5 O5            -0.5328    -0.4249    -1.2423 O.2     
   6 N6             1.5857    -0.5133     0.0679 N.am    
   7 O7            -0.5884    -0.4043     1.2441 O.2     
   8 C8             2.4379    -0.2954    -0.9240 C.2     
   9 O9             3.5456    -0.7859    -0.6776 O.2     
  10 C10            2.4389     0.3547    -2.2010 C.ar    
  11 C11            3.5643     1.0768    -2.6191 C.ar    
  12 C12            3.6000     1.8225    -3.7626 C.ar    
  13 C13            2.4245     1.8363    -4.5250 C.ar    
  14 C14            1.3349     0.9819    -4.2298 C.ar    
  15 C15            1.3321     0.2187    -3.0707 C.ar    
  16 C16            2.0436     2.6368    -5.6138 C.2     
  17 C17            0.8172     2.2237    -6.0256 C.2     
  18 N18            0.4296     1.1470    -5.2424 N.pl3   
  19 C19            2.8838     3.7659    -6.1602 C.3     
  20 C20            3.1105     4.8093    -5.0644 C.3     
  21 C21            4.2330     3.2171    -6.6288 C.3     
  22 C22            5.0844     4.3613    -7.1825 C.3     
  23 C23            5.3111     5.4048    -6.0867 C.3     
  24 C24            3.9620     5.9536    -5.6181 C.3     
  25 C25            0.0057     2.8381    -7.0947 C.ar    
  26 C26           -1.3901     2.8928    -7.0363 C.ar    
  27 C27           -2.2004     2.2526    -6.0178 C.2     
  28 C28           -1.9867     1.1795    -5.3060 C.2     
  29 C29           -0.7595     0.3227    -5.4756 C.3     
  30 C30           -2.9299     0.7684    -4.2828 C.2     
  31 O31           -2.7868    -0.3364    -3.7481 O.2     
  32 C32            0.6538     3.3509    -8.2278 C.ar    
  33 C33           -0.0613     4.0071    -9.2083 C.ar    
  34 C34           -1.4364     4.1424    -9.0987 C.ar    
  35 C35           -2.1022     3.5888    -8.0347 C.ar    
  36 C36           -3.6604     2.2254    -2.5820 C.3     
  37 C37           -1.6740     3.0056    -1.2606 C.3     
  38 C38           -1.3818     2.2734     0.0480 C.3     
  39 C39           -5.2491     1.7432    -4.5754 C.3     
  40 C40            1.1936     2.4859     0.0040 C.3     
  41 Cl41           0.7659     4.6678   -10.5870 Cl      
  42 H42           -1.9808     1.0105    -1.9892 H       
  43 H43           -1.6051     2.2153    -3.2450 H       
  44 H44            1.9085    -0.9949     0.8688 H       
  45 H45            4.4507     1.0381    -2.0023 H       
  46 H46            4.4860     2.3656    -4.0575 H       
  47 H47            0.5280    -0.4721    -2.8732 H       
  48 H48            2.3678     4.2286    -7.0014 H       
  49 H49            2.1494     5.2003    -4.7305 H       
  50 H50            3.6265     4.3466    -4.2232 H       
  51 H51            4.7490     2.7543    -5.7875 H       
  52 H52            4.0715     2.4737    -7.4094 H       
  53 H53            6.0456     3.9704    -7.5163 H       
  54 H54            4.5684     4.8241    -8.0237 H       
  55 H55            5.8271     4.9420    -5.2455 H       
  56 H56            5.9177     6.2200    -6.4811 H       
  57 H57            3.4460     6.4163    -6.4593 H       
  58 H58            4.1235     6.6970    -4.8374 H       
  59 H59           -3.1248     2.7618    -5.8170 H       
  60 H60           -0.7360    -0.0726    -6.4888 H       
  61 H61           -0.7860    -0.4969    -4.7611 H       
  62 H62            1.7136     3.2074    -8.3760 H       
  63 H63           -1.9887     4.6854    -9.8520 H       
  64 H64           -3.1745     3.6933    -7.9609 H       
  65 H65           -4.2429     1.7619    -1.7847 H       
  66 H66           -3.8972     3.2859    -2.6538 H       
  67 H67           -0.7828     3.5148    -1.6187 H       
  68 H68           -2.4554     3.7528    -1.0864 H       
  69 H69           -2.1255     1.4929     0.2076 H       
  70 H70           -1.4320     2.9847     0.8785 H       
  71 H71           -5.2626     1.1542    -5.4925 H       
  72 H72           -6.0636     1.4227    -3.9258 H       
  73 H73           -5.3727     2.7983    -4.8194 H       
  74 H74            2.0699     1.8379    -0.0078 H       
  75 H75            1.1984     3.1198    -0.8827 H       
  76 H76            1.2154     3.1103     0.8972 H       
@<TRIPOS>BOND
   1    1    4 am
   2    1   40 1
   3    1   38 1
   4    2   36 1
   5    2   37 1
   6    2   42 1
   7    2   43 1
   8    3   30 am
   9    3   39 1
  10    3   36 1
  11    4    5 2
  12    4    6 am
  13    4    7 2
  14    6    8 am
  15    6   44 1
  16    8    9 2
  17    8   10 1
  18   10   11 ar
  19   10   15 ar
  20   11   12 ar
  21   11   45 1
  22   12   13 ar
  23   12   46 1
  24   13   14 ar
  25   13   16 1
  26   14   15 ar
  27   14   18 1
  28   15   47 1
  29   16   17 2
  30   16   19 1
  31   17   18 1
  32   17   25 1
  33   18   29 1
  34   19   20 1
  35   19   21 1
  36   19   48 1
  37   20   24 1
  38   20   49 1
  39   20   50 1
  40   21   22 1
  41   21   51 1
  42   21   52 1
  43   22   23 1
  44   22   53 1
  45   22   54 1
  46   23   24 1
  47   23   55 1
  48   23   56 1
  49   24   57 1
  50   24   58 1
  51   25   26 ar
  52   25   32 ar
  53   26   27 1
  54   26   35 ar
  55   27   28 2
  56   27   59 1
  57   28   29 1
  58   28   30 1
  59   29   60 1
  60   29   61 1
  61   30   31 2
  62   32   33 ar
  63   32   62 1
  64   33   34 ar
  65   33   41 1
  66   34   35 ar
  67   34   63 1
  68   35   64 1
  69   36   65 1
  70   36   66 1
  71   37   38 1
  72   37   67 1
  73   37   68 1
  74   38   69 1
  75   38   70 1
  76   39   71 1
  77   39   72 1
  78   39   73 1
  79   40   74 1
  80   40   75 1
  81   40   76 1

#	End of record

