#	Name: ASD01812838
#	Creating user name:	WinNT
#	Creation time:	15. 06. 2019 19:29

#	Modifying user name:	WinNT
#	Modification time:	15. 06. 2019 19:29

#	Program:	/corina/corina34_cracker 3.40 0067  02.08.2006

@<TRIPOS>MOLECULE
ASD01812838
  54   58    0    0    0
SMALL
NO_CHARGES


@<TRIPOS>ATOM
   1 N1             0.0027     1.3186    -0.2236 N.ar    
   2 C2             0.0319     0.0060    -0.3477 C.ar    
   3 C3             1.2340    -0.6842    -0.3694 C.ar    
   4 C4             2.4113     0.0205    -0.2596 C.ar    
   5 C5             2.3616     1.4132    -0.1291 C.ar    
   6 C6             1.1074     2.0396    -0.1149 C.ar    
   7 C7             3.8681    -0.3583    -0.2425 C.3     
   8 N8             4.6152     0.8972    -0.0960 N.am    
   9 C9             3.7395     1.9161    -0.0312 C.2     
  10 C10            6.0735     1.0199    -0.0308 C.3     
  11 C11            6.6256     1.1960    -1.4220 C.ar    
  12 C12            6.7730     2.4662    -1.9492 C.ar    
  13 C13            7.2786     2.6331    -3.2227 C.ar    
  14 C14            7.6405     1.5194    -3.9772 C.ar    
  15 C15            7.4899     0.2424    -3.4414 C.ar    
  16 C16            6.9883     0.0871    -2.1649 C.ar    
  17 O17            1.0260     3.3854     0.0104 O.3     
  18 O18            4.0443     3.0868     0.0911 O.2     
  19 C19           -0.2027     3.9620    -0.0794 C.ar    
  20 C20           -0.6493     4.4562    -1.2950 C.ar    
  21 C21           -1.8976     5.0421    -1.3866 C.ar    
  22 C22           -2.7043     5.1365    -0.2626 C.ar    
  23 C23           -2.2588     4.6428     0.9550 C.ar    
  24 C24           -1.0127     4.0505     1.0460 C.ar    
  25 F25           -0.5807     3.5636     2.2299 F       
  26 O26           -3.9321     5.7135    -0.3537 O.3     
  27 C27            8.5764     0.6952    -6.1918 C.2     
  28 C28            8.1843     1.6929    -5.3478 C.2     
  29 C29            8.3894     2.9173    -6.0131 C.2     
  30 N30            8.8800     2.6591    -7.1964 N.2     
  31 N31            9.0066     1.2714    -7.3324 N.pl3   
  32 C32            9.5186     0.5670    -8.5104 C.3     
  33 C33           -4.7096     5.7771     0.8436 C.3     
  34 F34           -4.0181     6.5154     1.8100 F       
  35 F35           -5.9344     6.3962     0.5719 F       
  36 F36           -4.9374     4.4820     1.3209 F       
  37 H37           -0.8958    -0.5403    -0.4334 H       
  38 H38            1.2466    -1.7593    -0.4707 H       
  39 H39            4.0742    -1.0176     0.6006 H       
  40 H40            4.1390    -0.8487    -1.1775 H       
  41 H41            6.3386     1.8848     0.5774 H       
  42 H42            6.4943     0.1190     0.4157 H       
  43 H43            6.4918     3.3289    -1.3635 H       
  44 H44            7.3930     3.6253    -3.6335 H       
  45 H45            7.7690    -0.6243    -4.0222 H       
  46 H46            6.8749    -0.9023    -1.7470 H       
  47 H47           -0.0215     4.3838    -2.1707 H       
  48 H48           -2.2449     5.4270    -2.3340 H       
  49 H49           -2.8869     4.7170     1.8304 H       
  50 H50            8.5510    -0.3640    -5.9826 H       
  51 H51            8.1776     3.8986    -5.6148 H       
  52 H52            8.6938     0.3427    -9.1867 H       
  53 H53           10.2470     1.1962    -9.0219 H       
  54 H54            9.9961    -0.3621    -8.1992 H       
@<TRIPOS>BOND
   1    1    2 ar
   2    1    6 ar
   3    2    3 ar
   4    2   37 1
   5    3    4 ar
   6    3   38 1
   7    4    7 1
   8    4    5 ar
   9    5    6 ar
  10    5    9 1
  11    6   17 1
  12    7    8 1
  13    7   39 1
  14    7   40 1
  15    8    9 am
  16    8   10 1
  17    9   18 2
  18   10   11 1
  19   10   41 1
  20   10   42 1
  21   11   12 ar
  22   11   16 ar
  23   12   13 ar
  24   12   43 1
  25   13   14 ar
  26   13   44 1
  27   14   15 ar
  28   14   28 1
  29   15   16 ar
  30   15   45 1
  31   16   46 1
  32   17   19 1
  33   19   20 ar
  34   19   24 ar
  35   20   21 ar
  36   20   47 1
  37   21   22 ar
  38   21   48 1
  39   22   23 ar
  40   22   26 1
  41   23   24 ar
  42   23   49 1
  43   24   25 1
  44   26   33 1
  45   27   28 2
  46   27   31 1
  47   27   50 1
  48   28   29 1
  49   29   30 2
  50   29   51 1
  51   30   31 1
  52   31   32 1
  53   32   52 1
  54   32   53 1
  55   32   54 1
  56   33   34 1
  57   33   35 1
  58   33   36 1

#	End of record

