#	Name: ASD06660053
#	Creating user name:	WinNT
#	Creation time:	15. 06. 2019 21:07

#	Modifying user name:	WinNT
#	Modification time:	15. 06. 2019 21:07

#	Program:	/corina/corina34_cracker 3.40 0067  02.08.2006

@<TRIPOS>MOLECULE
ASD06660053
  74   78    0    0    0
SMALL
NO_CHARGES


@<TRIPOS>ATOM
   1 C1            -1.9787     1.7517     0.1557 C.2     
   2 C2            -1.6416     0.4871    -0.5915 C.3     
   3 C3            -2.3325     0.5017    -1.9565 C.3     
   4 O4            -1.0977     2.5052     0.4964 O.2     
   5 O5            -3.2581     2.0438     0.4379 O.3     
   6 C6            -2.1123    -0.8205    -2.6452 C.ar    
   7 C7            -2.9450    -1.8894    -2.3688 C.ar    
   8 C8            -2.7459    -3.1025    -2.9981 C.ar    
   9 C9            -1.7079    -3.2482    -3.9096 C.ar    
  10 C10           -0.8733    -2.1725    -4.1849 C.ar    
  11 C11           -1.0815    -0.9605    -3.5562 C.ar    
  12 N12           -1.5035    -4.4739    -4.5475 N.3     
  13 C13           -2.7877    -5.0989    -4.9154 C.3     
  14 C14           -2.2010    -6.4421    -4.4592 C.3     
  15 C15           -1.3216    -5.5577    -3.5641 C.3     
  16 C16           -3.1852    -7.3274    -3.6921 C.3     
  17 N17           -2.5608    -8.6229    -3.4122 N.pl3   
  18 C18           -3.2674    -9.5999    -2.7205 C.ar    
  19 C19           -4.5672    -9.3410    -2.2969 C.ar    
  20 C20           -5.2585   -10.3221    -1.6098 C.ar    
  21 C21           -4.6246   -11.5340    -1.3682 C.ar    
  22 C22           -3.3332   -11.7228    -1.8173 C.ar    
  23 N23           -2.6994   -10.7705    -2.4754 N.ar    
  24 C24            0.6011     0.0364     0.2477 C.2     
  25 C25            2.0498    -0.1509     0.0322 C.ar    
  26 C26            2.5642    -1.4297    -0.1972 C.ar    
  27 C27            3.9157    -1.6005    -0.3982 C.ar    
  28 C28            4.7684    -0.5023    -0.3732 C.ar    
  29 C29            4.2603     0.7714    -0.1448 C.ar    
  30 C30            2.9087     0.9506     0.0514 C.ar    
  31 O31            0.1229    -0.1398     1.3515 O.2     
  32 N32           -0.1911     0.4028    -0.7792 N.am    
  33 C33            2.3580     2.3325     0.2923 C.3     
  34 C34            6.7772    -1.8575    -0.8112 C.2     
  35 N35            8.0527    -1.6198    -0.9500 N.2     
  36 C36            8.2775    -0.3043    -0.8133 C.2     
  37 C37            7.0983     0.3021    -0.5804 C.2     
  38 N38            6.1405    -0.6796    -0.5778 N.pl3   
  39 C39            1.6410    -2.6205    -0.2240 C.3     
  40 C40            1.0493    -2.7756    -1.6264 C.3     
  41 H41           -1.9847    -0.3751    -0.0198 H       
  42 H42           -3.4013     0.6672    -1.8210 H       
  43 H43           -1.9153     1.3030    -2.5664 H       
  44 H44           -3.4249     2.8659     0.9189 H       
  45 H45           -3.7516    -1.7755    -1.6597 H       
  46 H46           -3.3964    -3.9370    -2.7815 H       
  47 H47           -0.0654    -2.2824    -4.8931 H       
  48 H48           -0.4359    -0.1223    -3.7734 H       
  49 H49           -3.6254    -4.7613    -4.3052 H       
  50 H50           -3.0001    -5.0582    -5.9837 H       
  51 H51           -1.6528    -6.9763    -5.2353 H       
  52 H52           -0.2916    -5.9060    -3.4871 H       
  53 H53           -1.7682    -5.3426    -2.5933 H       
  54 H54           -3.4539    -6.8432    -2.7533 H       
  55 H55           -4.0821    -7.4786    -4.2927 H       
  56 H56           -1.6544    -8.7988    -3.7095 H       
  57 H57           -5.0298    -8.3868    -2.5016 H       
  58 H58           -6.2685   -10.1496    -1.2684 H       
  59 H59           -5.1369   -12.3206    -0.8341 H       
  60 H60           -2.8366   -12.6637    -1.6316 H       
  61 H61            4.3139    -2.5887    -0.5752 H       
  62 H62            4.9255     1.6220    -0.1253 H       
  63 H63            0.1991     0.6106    -1.6426 H       
  64 H64            2.3599     2.5431     1.3618 H       
  65 H65            2.9781     3.0658    -0.2234 H       
  66 H66            1.3377     2.3883    -0.0871 H       
  67 H67            6.3059    -2.8271    -0.8756 H       
  68 H68            9.2386     0.1840    -0.8785 H       
  69 H69            6.9375     1.3588    -0.4253 H       
  70 H70            2.1999    -3.5195     0.0359 H       
  71 H71            0.8359    -2.4724     0.4957 H       
  72 H72            0.5742    -1.8413    -1.9257 H       
  73 H73            1.8439    -3.0211    -2.3310 H       
  74 H74            0.3081    -3.5748    -1.6218 H       
@<TRIPOS>BOND
   1    1    2 1
   2    1    4 2
   3    1    5 1
   4    2    3 1
   5    2   32 1
   6    2   41 1
   7    3    6 1
   8    3   42 1
   9    3   43 1
  10    5   44 1
  11    6    7 ar
  12    6   11 ar
  13    7    8 ar
  14    7   45 1
  15    8    9 ar
  16    8   46 1
  17    9   10 ar
  18    9   12 1
  19   10   11 ar
  20   10   47 1
  21   11   48 1
  22   12   13 1
  23   12   15 1
  24   13   14 1
  25   13   49 1
  26   13   50 1
  27   14   15 1
  28   14   16 1
  29   14   51 1
  30   15   52 1
  31   15   53 1
  32   16   17 1
  33   16   54 1
  34   16   55 1
  35   17   18 1
  36   17   56 1
  37   18   19 ar
  38   18   23 ar
  39   19   20 ar
  40   19   57 1
  41   20   21 ar
  42   20   58 1
  43   21   22 ar
  44   21   59 1
  45   22   23 ar
  46   22   60 1
  47   24   25 1
  48   24   31 2
  49   24   32 am
  50   25   26 ar
  51   25   30 ar
  52   26   27 ar
  53   26   39 1
  54   27   28 ar
  55   27   61 1
  56   28   29 ar
  57   28   38 1
  58   29   30 ar
  59   29   62 1
  60   30   33 1
  61   32   63 1
  62   33   64 1
  63   33   65 1
  64   33   66 1
  65   34   35 2
  66   34   38 1
  67   34   67 1
  68   35   36 1
  69   36   37 2
  70   36   68 1
  71   37   38 1
  72   37   69 1
  73   39   40 1
  74   39   70 1
  75   39   71 1
  76   40   72 1
  77   40   73 1
  78   40   74 1

#	End of record

