#	Name: ASD01881848
#	Creating user name:	WinNT
#	Creation time:	15. 06. 2019 19:43

#	Modifying user name:	WinNT
#	Modification time:	15. 06. 2019 19:43

#	Program:	/corina/corina34_cracker 3.40 0067  02.08.2006

@<TRIPOS>MOLECULE
ASD01881848
  39   41    0    0    0
SMALL
NO_CHARGES


@<TRIPOS>ATOM
   1 N1             0.1371     1.2111     1.7256 N.pl3   
   2 N2             0.1896    -0.0658     1.5637 N.2     
   3 N3             1.3643    -0.4541     1.2105 N.2     
   4 C4             2.1783     0.6171     1.1214 C.ar    
   5 C5             1.3821     1.7279     1.4591 C.ar    
   6 C6             3.5227     0.8074     0.7912 C.ar    
   7 C7             4.0506     2.0834     0.8013 C.ar    
   8 C8             3.2525     3.1744     1.1372 C.ar    
   9 C9             1.9358     3.0016     1.4613 C.ar    
  10 O10            5.3583     2.2760     0.4815 O.3     
  11 C11            5.8421     3.6203     0.5110 C.3     
  12 C12            7.3227     3.6380     0.1257 C.3     
  13 O13            8.0657     2.8439     1.0527 O.3     
  14 C14            9.4778     3.0556     0.9983 C.3     
  15 O15            7.4787     3.1043    -1.1907 O.3     
  16 C16            8.6919     3.4958    -1.8366 C.3     
  17 C17           -1.0463     1.9796     2.1196 C.3     
  18 C18           -1.1006     2.0863     3.6449 C.3     
  19 C19           -2.2038     2.9544     4.2534 C.3     
  20 C20           -2.2850     1.4300     4.3572 C.3     
  21 Br21           4.6106    -0.6705     0.3350 Br      
  22 H22            3.6782     4.1669     1.1414 H       
  23 H23            1.3266     3.8550     1.7199 H       
  24 H24            5.2754     4.2260    -0.1961 H       
  25 H25            5.7231     4.0273     1.5151 H       
  26 H26            7.6918     4.6633     0.1482 H       
  27 H27            9.8991     2.4857     0.1702 H       
  28 H28            9.6807     4.1162     0.8498 H       
  29 H29            9.9309     2.7266     1.9335 H       
  30 H30            8.6647     3.1837    -2.8806 H       
  31 H31            8.7983     4.5793    -1.7838 H       
  32 H32            9.5379     3.0228    -1.3379 H       
  33 H33           -0.9911     2.9787     1.6872 H       
  34 H34           -1.9431     1.4764     1.7583 H       
  35 H35           -0.1359     2.0697     4.1520 H       
  36 H36           -1.9650     3.5086     5.1611 H       
  37 H37           -2.8909     3.4494     3.5672 H       
  38 H38           -3.0255     0.9223     3.7391 H       
  39 H39           -2.0996     0.9814     5.3331 H       
@<TRIPOS>BOND
   1    1    2 1
   2    1    5 1
   3    1   17 1
   4    2    3 2
   5    3    4 1
   6    4    5 ar
   7    4    6 ar
   8    5    9 ar
   9    6    7 ar
  10    6   21 1
  11    7    8 ar
  12    7   10 1
  13    8    9 ar
  14    8   22 1
  15    9   23 1
  16   10   11 1
  17   11   12 1
  18   11   24 1
  19   11   25 1
  20   12   13 1
  21   12   15 1
  22   12   26 1
  23   13   14 1
  24   14   27 1
  25   14   28 1
  26   14   29 1
  27   15   16 1
  28   16   30 1
  29   16   31 1
  30   16   32 1
  31   17   18 1
  32   17   33 1
  33   17   34 1
  34   18   19 1
  35   18   20 1
  36   18   35 1
  37   19   20 1
  38   19   36 1
  39   19   37 1
  40   20   38 1
  41   20   39 1

#	End of record

