#	Name: ASD05503064
#	Creating user name:	WinNT
#	Creation time:	15. 06. 2019 21:01

#	Modifying user name:	WinNT
#	Modification time:	15. 06. 2019 21:01

#	Program:	/corina/corina34_cracker 3.40 0067  02.08.2006

@<TRIPOS>MOLECULE
ASD05503064
  44   46    0    0    0
SMALL
NO_CHARGES


@<TRIPOS>ATOM
   1 C1             0.0694     1.5285    -0.1480 C.ar    
   2 C2            -0.0730     0.1492    -0.1261 C.ar    
   3 C3            -1.3370    -0.4222    -0.2073 C.ar    
   4 C4            -2.4584     0.3875    -0.3075 C.ar    
   5 C5            -2.3118     1.7693    -0.3261 C.ar    
   6 C6            -1.0545     2.3326    -0.2505 C.ar    
   7 N7            -3.7319    -0.1844    -0.3899 N.am    
   8 C8            -4.7859     0.4328     0.1798 C.2     
   9 C9            -6.1480    -0.1088    -0.0059 C.ar    
  10 C10           -6.3469    -1.2595    -0.7707 C.ar    
  11 C11           -7.6211    -1.7602    -0.9397 C.ar    
  12 C12           -8.7015    -1.1246    -0.3537 C.ar    
  13 C13           -8.5128     0.0161     0.4056 C.ar    
  14 C14           -7.2423     0.5251     0.5880 C.ar    
  15 Br15          -6.9858     2.0843     1.6268 Br      
  16 O16           -4.6159     1.4351     0.8464 O.2     
  17 C17            1.4249     2.1804    -0.0688 C.3     
  18 C18            2.4478     1.2167     0.5322 C.3     
  19 C19            2.3816    -0.1142    -0.2283 C.3     
  20 N20            1.0447    -0.6857    -0.0175 N.am    
  21 S21            0.8635    -2.2917     0.3432 S.o2    
  22 C22            0.4657    -3.0705    -1.2460 C.3     
  23 O23            2.1500    -2.6980     0.7895 O.2     
  24 O24           -0.2597    -2.3310     1.2128 O.2     
  25 C25            0.2723    -4.5746    -1.0427 C.3     
  26 H26           -1.4461    -1.4966    -0.1926 H       
  27 H27           -3.1830     2.4030    -0.4033 H       
  28 H28           -0.9461     3.4071    -0.2650 H       
  29 H29           -3.8566    -1.0253    -0.8571 H       
  30 H30           -5.5049    -1.7566    -1.2295 H       
  31 H31           -7.7759    -2.6504    -1.5313 H       
  32 H32           -9.6969    -1.5208    -0.4901 H       
  33 H33           -9.3605     0.5075     0.8599 H       
  34 H34            1.7455     2.4666    -1.0705 H       
  35 H35            1.3597     3.0713     0.5558 H       
  36 H36            3.4476     1.6409     0.4394 H       
  37 H37            2.2168     1.0482     1.5840 H       
  38 H38            2.5452     0.0598    -1.2918 H       
  39 H39            3.1397    -0.7969     0.1557 H       
  40 H40           -0.4518    -2.6368    -1.6437 H       
  41 H41            1.2819    -2.9008    -1.9482 H       
  42 H42            0.0333    -5.0426    -1.9976 H       
  43 H43            1.1898    -5.0084    -0.6450 H       
  44 H44           -0.5439    -4.7443    -0.3405 H       
@<TRIPOS>BOND
   1    1    2 ar
   2    1   17 1
   3    1    6 ar
   4    2    3 ar
   5    2   20 1
   6    3    4 ar
   7    3   26 1
   8    4    5 ar
   9    4    7 1
  10    5    6 ar
  11    5   27 1
  12    6   28 1
  13    7    8 am
  14    7   29 1
  15    8    9 1
  16    8   16 2
  17    9   10 ar
  18    9   14 ar
  19   10   11 ar
  20   10   30 1
  21   11   12 ar
  22   11   31 1
  23   12   13 ar
  24   12   32 1
  25   13   14 ar
  26   13   33 1
  27   14   15 1
  28   17   18 1
  29   17   34 1
  30   17   35 1
  31   18   19 1
  32   18   36 1
  33   18   37 1
  34   19   20 1
  35   19   38 1
  36   19   39 1
  37   20   21 am
  38   21   22 1
  39   21   23 2
  40   21   24 2
  41   22   25 1
  42   22   40 1
  43   22   41 1
  44   25   42 1
  45   25   43 1
  46   25   44 1

#	End of record

