#	Name: ASD03731438
#	Creating user name:	WinNT
#	Creation time:	15. 06. 2019 20:45

#	Modifying user name:	WinNT
#	Modification time:	15. 06. 2019 20:45

#	Program:	/corina/corina34_cracker 3.40 0067  02.08.2006

@<TRIPOS>MOLECULE
ASD03731438
  55   60    0    0    0
SMALL
NO_CHARGES


@<TRIPOS>ATOM
   1 C1            -0.0188     1.5336     0.0105 C.3     
   2 C2             0.0021    -0.0041     0.0020 C.3     
   3 C3             1.3941     0.0896     0.6488 C.3     
   4 C4             1.5179     1.4762    -0.0045 C.3     
   5 C5            -0.6126     2.1361    -1.2367 C.2     
   6 O6            -1.0169     1.4160    -2.1249 O.2     
   7 N7            -0.6943     3.4753    -1.3651 N.am    
   8 C8            -1.2715     4.0610    -2.5775 C.3     
   9 C9            -1.2453     5.5869    -2.4690 C.3     
  10 C10           -1.8482     6.1987    -3.7352 C.3     
  11 O11            2.1825    10.8457    -0.0136 O.3     
  12 C12            2.5958    12.1778     0.3436 C.3     
  13 O13            2.5709    12.8909    -0.9069 O.3     
  14 C14            1.6414    12.2499    -1.6750 C.ar    
  15 C15            1.4038    10.9920    -1.1258 C.ar    
  16 C16            0.9670    12.6449    -2.8164 C.ar    
  17 C17            0.0507    11.7922    -3.4246 C.ar    
  18 C18           -0.1721    10.5349    -2.8714 C.ar    
  19 C19            0.4941    10.1405    -1.7300 C.ar    
  20 O20           -0.7230    11.9895    -4.5304 O.3     
  21 C21           -1.1778     9.8489    -3.7568 C.3     
  22 C22           -1.1809    10.7156    -5.0234 C.3     
  23 N23           -1.8231     7.6598    -3.6313 N.am    
  24 C24           -0.7977     8.4266    -4.0526 C.2     
  25 C25           -2.5367     9.7745    -3.1263 C.ar    
  26 C26           -3.4127    10.7190    -2.6395 C.ar    
  27 C27           -4.6267    10.3273    -2.1040 C.ar    
  28 C28           -4.9579     8.9853    -2.0581 C.ar    
  29 C29           -4.0835     8.0355    -2.5435 C.ar    
  30 C30           -2.8594     8.4206    -3.0848 C.ar    
  31 O31            0.2302     8.0431    -4.5697 O.2     
  32 H32           -0.4309     1.9596     0.9252 H       
  33 H33           -0.7506    -0.4545     0.6490 H       
  34 H34            0.0139    -0.4351    -0.9991 H       
  35 H35            1.3682     0.1209     1.7381 H       
  36 H36            2.1053    -0.6404     0.2621 H       
  37 H37            1.9441     1.4499    -1.0074 H       
  38 H38            1.9889     2.2208     0.6373 H       
  39 H39           -0.3709     4.0512    -0.6547 H       
  40 H40           -0.6897     3.7484    -3.4446 H       
  41 H41           -2.3015     3.7224    -2.6898 H       
  42 H42           -1.8272     5.8996    -1.6019 H       
  43 H43           -0.2154     5.9256    -2.3567 H       
  44 H44           -1.2663     5.8860    -4.6023 H       
  45 H45           -2.8781     5.8600    -3.8475 H       
  46 H46            1.8939    12.6199     1.0506 H       
  47 H47            3.6037    12.1677     0.7587 H       
  48 H48            1.1529    13.6215    -3.2384 H       
  49 H49            0.3061     9.1650    -1.3065 H       
  50 H50           -2.1874    10.7983    -5.4334 H       
  51 H51           -0.4904    10.3173    -5.7668 H       
  52 H52           -3.1519    11.7664    -2.6762 H       
  53 H53           -5.3143    11.0679    -1.7229 H       
  54 H54           -5.9056     8.6796    -1.6399 H       
  55 H55           -4.3490     6.9894    -2.5037 H       
@<TRIPOS>BOND
   1    1    2 1
   2    1    4 1
   3    1    5 1
   4    1   32 1
   5    2    3 1
   6    2   33 1
   7    2   34 1
   8    3    4 1
   9    3   35 1
  10    3   36 1
  11    4   37 1
  12    4   38 1
  13    5    6 2
  14    5    7 am
  15    7    8 1
  16    7   39 1
  17    8    9 1
  18    8   40 1
  19    8   41 1
  20    9   10 1
  21    9   42 1
  22    9   43 1
  23   10   23 1
  24   10   44 1
  25   10   45 1
  26   11   12 1
  27   11   15 1
  28   12   13 1
  29   12   46 1
  30   12   47 1
  31   13   14 1
  32   14   15 ar
  33   14   16 ar
  34   15   19 ar
  35   16   17 ar
  36   16   48 1
  37   17   18 ar
  38   17   20 1
  39   18   19 ar
  40   18   21 1
  41   19   49 1
  42   20   22 1
  43   21   22 1
  44   21   24 1
  45   21   25 1
  46   22   50 1
  47   22   51 1
  48   23   24 am
  49   23   30 1
  50   24   31 2
  51   25   26 ar
  52   25   30 ar
  53   26   27 ar
  54   26   52 1
  55   27   28 ar
  56   27   53 1
  57   28   29 ar
  58   28   54 1
  59   29   30 ar
  60   29   55 1

#	End of record

