#	Name: ASD01901187
#	Creating user name:	WinNT
#	Creation time:	15. 06. 2019 19:53

#	Modifying user name:	WinNT
#	Modification time:	15. 06. 2019 19:53

#	Program:	/corina/corina34_cracker 3.40 0067  02.08.2006

@<TRIPOS>MOLECULE
ASD01901187
  50   53    0    0    0
SMALL
NO_CHARGES


@<TRIPOS>ATOM
   1 C1             0.2153     1.4859    -1.9410 C.ar    
   2 N2             0.2593     0.1901    -2.1693 N.ar    
   3 C3             1.4018    -0.4541    -2.3133 C.ar    
   4 C4             2.6124     0.2099    -2.2295 C.ar    
   5 C5             2.6228     1.5727    -1.9909 C.ar    
   6 C6             1.3942     2.2300    -1.8427 C.ar    
   7 C7             1.3474     3.6396    -1.5948 C.1     
   8 C8             1.3091     4.7952    -1.3916 C.1     
   9 C9             1.2623     6.2049    -1.1437 C.ar    
  10 C10            2.4480     6.9390    -1.0473 C.ar    
  11 C11            2.3991     8.2972    -0.8083 C.ar    
  12 C12            1.1717     8.9359    -0.6634 C.ar    
  13 C13           -0.0104     8.2085    -0.7587 C.ar    
  14 C14            0.0308     6.8510    -1.0033 C.ar    
  15 N15            1.1259    10.3164    -0.4201 N.am    
  16 C16            1.0733    11.1709    -1.4582 C.2     
  17 C17            1.1243    12.6580    -1.2131 C.3     
  18 C18            0.4075    12.9759     0.1012 C.3     
  19 N19            0.8548    12.0459     1.1397 N.am    
  20 C20            1.1296    10.7656     0.8460 C.2     
  21 O21            0.9854    10.7454    -2.5901 O.2     
  22 O22            1.3930     9.9948     1.7480 O.2     
  23 C23            0.7388    14.4088     0.5230 C.3     
  24 C24           -1.0815    12.8397    -0.0874 C.ar    
  25 C25           -1.8202    12.0052     0.7378 C.ar    
  26 C26           -3.1872    11.9112     0.5275 C.ar    
  27 C27           -3.7644    12.6471    -0.4904 C.ar    
  28 N28           -3.0305    13.4307    -1.2558 N.ar    
  29 C29           -1.7286    13.5492    -1.0810 C.ar    
  30 F30           -1.2001     8.8329    -0.6173 F       
  31 F31            3.5445     9.0074    -0.7146 F       
  32 C32            0.9990    12.5185     2.5189 C.3     
  33 H33           -0.7397     1.9787    -1.8333 H       
  34 H34            1.3916    -1.5179    -2.4995 H       
  35 H35            3.5401    -0.3301    -2.3487 H       
  36 H36            3.5537     2.1157    -1.9204 H       
  37 H37            3.4011     6.4437    -1.1594 H       
  38 H38           -0.8874     6.2878    -1.0820 H       
  39 H39            2.1633    12.9811    -1.1487 H       
  40 H40            0.6300    13.1794    -2.0328 H       
  41 H41            1.8157    14.5075     0.6598 H       
  42 H42            0.4058    15.1013    -0.2501 H       
  43 H43            0.2309    14.6385     1.4597 H       
  44 H44           -1.3419    11.4417     1.5252 H       
  45 H45           -3.7936    11.2707     1.1509 H       
  46 H46           -4.8286    12.5791    -0.6609 H       
  47 H47           -1.1611    14.2049    -1.7247 H       
  48 H48            0.0582    12.3784     3.0512 H       
  49 H49            1.7860    11.9519     3.0167 H       
  50 H50            1.2602    13.5767     2.5149 H       
@<TRIPOS>BOND
   1    1    2 ar
   2    1    6 ar
   3    1   33 1
   4    2    3 ar
   5    3    4 ar
   6    3   34 1
   7    4    5 ar
   8    4   35 1
   9    5    6 ar
  10    5   36 1
  11    6    7 1
  12    7    8 3
  13    8    9 1
  14    9   10 ar
  15    9   14 ar
  16   10   11 ar
  17   10   37 1
  18   11   12 ar
  19   11   31 1
  20   12   13 ar
  21   12   15 1
  22   13   14 ar
  23   13   30 1
  24   14   38 1
  25   15   16 am
  26   15   20 am
  27   16   17 1
  28   16   21 2
  29   17   18 1
  30   17   39 1
  31   17   40 1
  32   18   19 1
  33   18   23 1
  34   18   24 1
  35   19   20 am
  36   19   32 1
  37   20   22 2
  38   23   41 1
  39   23   42 1
  40   23   43 1
  41   24   25 ar
  42   24   29 ar
  43   25   26 ar
  44   25   44 1
  45   26   27 ar
  46   26   45 1
  47   27   28 ar
  48   27   46 1
  49   28   29 ar
  50   29   47 1
  51   32   48 1
  52   32   49 1
  53   32   50 1

#	End of record

