#	Name: ASD05143113
#	Creating user name:	WinNT
#	Creation time:	15. 06. 2019 20:57

#	Modifying user name:	WinNT
#	Modification time:	15. 06. 2019 20:57

#	Program:	/corina/corina34_cracker 3.40 0067  02.08.2006

@<TRIPOS>MOLECULE
ASD05143113
 148  151    0    0    0
SMALL
NO_CHARGES


@<TRIPOS>ATOM
   1 C1            -2.1134     5.3878     7.5260 C.2     
   2 C2            -1.6290     4.6487     8.7467 C.3     
   3 N3            -1.2249     5.9247     6.6666 N.am    
   4 O4            -3.3028     5.4952     7.3144 O.2     
   5 C5            -1.6958     6.6433     5.4799 C.3     
   6 C6            -2.5284     5.6999     4.6095 C.3     
   7 C7            -2.5440     7.8140     5.9053 C.2     
   8 C8            -1.6358     4.5778     4.0755 C.3     
   9 C9            -2.4684     3.6344     3.2050 C.3     
  10 N10           -1.6137     2.5600     2.6937 N.pl3   
  11 C11           -2.1455     1.5859     1.8822 C.2     
  12 N12           -1.3434     0.5776     1.4023 N.pl3   
  13 N13           -3.4100     1.6183     1.5677 N.2     
  14 O14           -3.0378     7.8345     7.0129 O.2     
  15 N15           -2.7540     8.8384     5.0549 N.am    
  16 C16           -3.5785     9.9765     5.4685 C.3     
  17 C17           -2.6761    11.1674     5.7973 C.3     
  18 C18           -1.5207    10.7026     6.6859 C.3     
  19 C19           -0.3788    10.2337     5.8217 C.2     
  20 N20            0.8880    10.6461     6.1248 N.am    
  21 C21            1.9522    10.1354     5.2308 C.3     
  22 C22            2.1033    11.0966     4.0501 C.3     
  23 C23            2.7679    10.3669     2.8810 C.3     
  24 C24            3.7269    11.3189     2.1635 C.3     
  25 N25            3.6767    11.0426     0.7137 N.am    
  26 C26            5.1290    11.1006     2.6709 C.2     
  27 N27            5.5154    11.6484     3.8401 N.am    
  28 O28            5.9096    10.4319     2.0272 O.2     
  29 C29            2.8511    11.8310    -0.0273 C.2     
  30 O30            2.2066    12.7124     0.5006 O.2     
  31 C31            2.7482    11.5953    -1.5122 C.3     
  32 N32            1.5339    12.2781    -2.0148 N.am    
  33 C33            3.9846    12.1659    -2.2099 C.3     
  34 C34            0.4812    11.4586    -2.3092 C.2     
  35 O35            0.5728    10.2582    -2.1626 O.2     
  36 C36           -0.7962    12.0746    -2.8192 C.3     
  37 N37           -1.9232    11.1812    -2.4849 N.am    
  38 C38           -1.0083    13.4373    -2.1568 C.3     
  39 C39           -3.0283    11.7689    -1.9494 C.2     
  40 O40           -3.0581    12.9667    -1.7615 O.2     
  41 C41           -4.2143    10.9097    -1.5941 C.3     
  42 C42            3.9378    11.8213    -3.6762 C.2     
  43 C43            3.2404    12.5689    -4.7253 C.ar    
  44 C44            3.4795    11.8720    -5.9236 C.ar    
  45 N45            4.2645    10.7848    -5.6115 N.pl3   
  46 C46            4.5322    10.7741    -4.2697 C.2     
  47 C47            2.4635    13.7290    -4.7371 C.ar    
  48 C48            1.9387    14.1819    -5.9144 C.ar    
  49 C49            2.1713    13.4975    -7.0997 C.ar    
  50 C50            2.9355    12.3515    -7.1110 C.ar    
  51 N51           -4.8012    11.4103    -0.3301 N.am    
  52 C52           -3.7611     9.4599    -1.4107 C.3     
  53 C53           -4.9597     8.5907    -1.1296 C.ar    
  54 C54           -5.9880     8.5134    -2.0495 C.ar    
  55 C55           -7.0883     7.7149    -1.7915 C.ar    
  56 C56           -7.1581     6.9945    -0.6127 C.ar    
  57 C57           -6.1288     7.0726     0.3068 C.ar    
  58 C58           -5.0276     7.8662     0.0461 C.ar    
  59 C59           -4.5159    10.3508     4.3492 C.2     
  60 O60           -5.7143    10.2187     4.4803 O.2     
  61 C61           -1.0197    13.2689    -0.6361 C.3     
  62 C62           -1.3784    14.6027     0.0220 C.3     
  63 N63           -1.3892    14.4415     1.4781 N.pl3   
  64 C64           -1.6872    15.5131     2.2862 C.2     
  65 N65           -1.9751    16.7360     1.7278 N.pl3   
  66 N66           -1.6969    15.3697     3.5817 N.2     
  67 N67           -3.9979    10.8389     3.1887 N.am    
  68 C68           -4.9648    11.1886     2.1288 C.3     
  69 C69           -4.4088    10.7488     0.7990 C.2     
  70 O70           -3.6272     9.8239     0.7323 O.2     
  71 C71           -5.1866    12.7024     2.1165 C.3     
  72 C72           -5.8511    13.1312     3.4262 C.3     
  73 C73           -6.0730    14.6450     3.4139 C.3     
  74 Cl74          -8.3807     7.6178    -2.9464 Cl      
  75 N75           -6.7110    15.0566     4.6714 N.3     
  76 O76           -0.5804     9.5034     4.8746 O.2     
  77 H77           -1.0359     5.3207     9.3669 H       
  78 H78           -2.4853     4.2887     9.3171 H       
  79 H79           -1.0155     3.8019     8.4390 H       
  80 H80           -0.2736     5.8354     6.8337 H       
  81 H81           -0.8396     7.0032     4.9095 H       
  82 H82           -3.3336     5.2710     5.2059 H       
  83 H83           -2.9521     6.2561     3.7733 H       
  84 H84           -0.8306     5.0067     3.4791 H       
  85 H85           -1.2121     4.0216     4.9116 H       
  86 H86           -3.2736     3.2055     3.8014 H       
  87 H87           -2.8921     4.1907     2.3688 H       
  88 H88           -0.6727     2.5359     2.9277 H       
  89 H89           -0.4024     0.5534     1.6363 H       
  90 H90           -1.7186    -0.1097     0.8298 H       
  91 H91           -3.7851     0.9310     0.9952 H       
  92 H92           -2.3591     8.8220     4.1691 H       
  93 H93           -4.1571     9.7043     6.3513 H       
  94 H94           -2.2778    11.5872     4.8736 H       
  95 H95           -3.2547    11.9277     6.3219 H       
  96 H96           -1.1870    11.5311     7.3107 H       
  97 H97           -1.8572     9.8822     7.3198 H       
  98 H98            1.0771    11.2331     6.8736 H       
  99 H99            2.8930    10.0776     5.7781 H       
 100 H100           1.6783     9.1461     4.8643 H       
 101 H101           1.1200    11.4536     3.7439 H       
 102 H102           2.7211    11.9438     4.3480 H       
 103 H103           3.3230     9.5076     3.2574 H       
 104 H104           2.0029    10.0274     2.1826 H       
 105 H105           3.4254    12.3498     2.3495 H       
 106 H106           4.2045    10.3356     0.3106 H       
 107 H107           4.8911    12.1833     4.3550 H       
 108 H108           6.4179    11.5079     4.1667 H       
 109 H109           2.6746    10.5257    -1.7089 H       
 110 H110           1.4892    13.2406    -2.1273 H       
 111 H111           4.0008    13.2494    -2.0917 H       
 112 H112           4.8829    11.7383    -1.7646 H       
 113 H113          -0.7360    12.1975    -3.9006 H       
 114 H114          -1.8783    10.2245    -2.6385 H       
 115 H115          -0.1992    14.1098    -2.4418 H       
 116 H116          -1.9605    13.8556    -2.4831 H       
 117 H117          -4.9574    10.9651    -2.3895 H       
 118 H118           4.5834    10.1265    -6.2486 H       
 119 H119           5.1270    10.0292    -3.7621 H       
 120 H120           2.2777    14.2662    -3.8188 H       
 121 H121           1.3378    15.0793    -5.9231 H       
 122 H122           1.7494    13.8677    -8.0224 H       
 123 H123           3.1110    11.8264    -8.0383 H       
 124 H124          -5.4209    12.1561    -0.3056 H       
 125 H125          -3.2679     9.1156    -2.3197 H       
 126 H126          -3.0647     9.3999    -0.5744 H       
 127 H127          -5.9331     9.0764    -2.9696 H       
 128 H128          -8.0168     6.3714    -0.4106 H       
 129 H129          -6.1832     6.5101     1.2272 H       
 130 H130          -4.2236     7.9267     0.7646 H       
 131 H131          -1.7585    12.5169    -0.3593 H       
 132 H132          -0.0333    12.9508    -0.2984 H       
 133 H133          -0.6395    15.3548    -0.2547 H       
 134 H134          -2.3647    14.9209    -0.3156 H       
 135 H135          -1.1861    13.5787     1.8721 H       
 136 H136          -1.9679    16.8428     0.7638 H       
 137 H137          -2.1854    17.4921     2.2980 H       
 138 H138          -1.9072    16.1257     4.1518 H       
 139 H139          -3.0425    10.9515     3.0645 H       
 140 H140          -5.9108    10.6804     2.3153 H       
 141 H141          -4.2273    13.2094     2.0127 H       
 142 H142          -5.8307    12.9684     1.2783 H       
 143 H143          -6.8104    12.6242     3.5300 H       
 144 H144          -5.2071    12.8652     4.2645 H       
 145 H145          -5.1137    15.1519     3.3101 H       
 146 H146          -6.7170    14.9109     2.5756 H       
 147 H147          -6.1640    14.7638     5.4671 H       
 148 H148          -6.8683    16.0532     4.6878 H       
@<TRIPOS>BOND
   1    1    2 1
   2    1    3 am
   3    1    4 2
   4    2   77 1
   5    2   78 1
   6    2   79 1
   7    3    5 1
   8    3   80 1
   9    5    6 1
  10    5    7 1
  11    5   81 1
  12    6    8 1
  13    6   82 1
  14    6   83 1
  15    7   14 2
  16    7   15 am
  17    8    9 1
  18    8   84 1
  19    8   85 1
  20    9   10 1
  21    9   86 1
  22    9   87 1
  23   10   11 1
  24   10   88 1
  25   11   12 1
  26   11   13 2
  27   12   89 1
  28   12   90 1
  29   13   91 1
  30   15   16 1
  31   15   92 1
  32   16   17 1
  33   16   59 1
  34   16   93 1
  35   17   18 1
  36   17   94 1
  37   17   95 1
  38   18   19 1
  39   18   96 1
  40   18   97 1
  41   19   20 am
  42   19   76 2
  43   20   21 1
  44   20   98 1
  45   21   22 1
  46   21   99 1
  47   21  100 1
  48   22   23 1
  49   22  101 1
  50   22  102 1
  51   23   24 1
  52   23  103 1
  53   23  104 1
  54   24   25 1
  55   24   26 1
  56   24  105 1
  57   25   29 am
  58   25  106 1
  59   26   27 am
  60   26   28 2
  61   27  107 1
  62   27  108 1
  63   29   30 2
  64   29   31 1
  65   31   32 1
  66   31   33 1
  67   31  109 1
  68   32   34 am
  69   32  110 1
  70   33   42 1
  71   33  111 1
  72   33  112 1
  73   34   35 2
  74   34   36 1
  75   36   37 1
  76   36   38 1
  77   36  113 1
  78   37   39 am
  79   37  114 1
  80   38   61 1
  81   38  115 1
  82   38  116 1
  83   39   40 2
  84   39   41 1
  85   41   51 1
  86   41   52 1
  87   41  117 1
  88   42   43 1
  89   42   46 2
  90   43   44 ar
  91   43   47 ar
  92   44   45 1
  93   44   50 ar
  94   45   46 1
  95   45  118 1
  96   46  119 1
  97   47   48 ar
  98   47  120 1
  99   48   49 ar
 100   48  121 1
 101   49   50 ar
 102   49  122 1
 103   50  123 1
 104   51   69 am
 105   51  124 1
 106   52   53 1
 107   52  125 1
 108   52  126 1
 109   53   54 ar
 110   53   58 ar
 111   54   55 ar
 112   54  127 1
 113   55   56 ar
 114   55   74 1
 115   56   57 ar
 116   56  128 1
 117   57   58 ar
 118   57  129 1
 119   58  130 1
 120   59   60 2
 121   59   67 am
 122   61   62 1
 123   61  131 1
 124   61  132 1
 125   62   63 1
 126   62  133 1
 127   62  134 1
 128   63   64 1
 129   63  135 1
 130   64   65 1
 131   64   66 2
 132   65  136 1
 133   65  137 1
 134   66  138 1
 135   67   68 1
 136   67  139 1
 137   68   69 1
 138   68   71 1
 139   68  140 1
 140   69   70 2
 141   71   72 1
 142   71  141 1
 143   71  142 1
 144   72   73 1
 145   72  143 1
 146   72  144 1
 147   73   75 1
 148   73  145 1
 149   73  146 1
 150   75  147 1
 151   75  148 1

#	End of record

