#	Name: ASD01910402
#	Creating user name:	WinNT
#	Creation time:	15. 06. 2019 19:55

#	Modifying user name:	WinNT
#	Modification time:	15. 06. 2019 19:55

#	Program:	/corina/corina34_cracker 3.40 0067  02.08.2006

@<TRIPOS>MOLECULE
ASD01910402
  49   52    0    0    0
SMALL
NO_CHARGES


@<TRIPOS>ATOM
   1 C1            -0.0103     1.4271     0.0865 C.ar    
   2 C2             0.0078    -0.0046     0.0654 C.1     
   3 C3             0.0227    -1.1784     0.0480 C.1     
   4 C4             0.0409    -2.6101     0.0269 C.ar    
   5 C5            -0.9514    -3.3126    -0.6660 C.ar    
   6 C6            -0.9332    -4.6781    -0.6861 C.ar    
   7 C7             0.0762    -5.3740    -0.0143 C.ar    
   8 C8             1.0676    -4.6728     0.6785 C.ar    
   9 C9             1.0542    -3.3073     0.6943 C.ar    
  10 C10            0.0949    -6.8500    -0.0362 C.2     
  11 O11           -0.9458    -7.4726     0.0509 O.2     
  12 N12            1.2657    -7.5075    -0.1526 N.am    
  13 C13            0.9792     2.1318     0.7776 C.ar    
  14 C14            0.9551     3.5106     0.7935 C.ar    
  15 C15           -0.0457     4.1964     0.1279 C.ar    
  16 C16           -1.0289     3.5055    -0.5585 C.ar    
  17 C17           -1.0144     2.1267    -0.5886 C.ar    
  18 C18            1.3211    -8.9739    -0.0536 C.3     
  19 C19            2.0839    -9.5152    -1.2675 C.3     
  20 N20            3.3899    -8.8490    -1.3580 N.3     
  21 C21            3.2373    -7.4053    -1.5829 C.3     
  22 C22            2.5209    -6.7780    -0.3881 C.3     
  23 C23            4.1773    -9.4276    -2.3490 C.ar    
  24 C24            5.4623    -8.9524    -2.6104 C.ar    
  25 C25            6.2103    -9.5533    -3.6008 C.ar    
  26 N26            5.7245   -10.5645    -4.2963 N.ar    
  27 C27            4.5135   -11.0428    -4.0792 C.ar    
  28 C28            3.7041   -10.5015    -3.1028 C.ar    
  29 H29           -1.7316    -2.7751    -1.1844 H       
  30 H30           -1.6990    -5.2203    -1.2209 H       
  31 H31            1.8467    -5.2111     1.1978 H       
  32 H32            1.8201    -2.7657     1.2295 H       
  33 H33            1.7605     1.5980     1.2981 H       
  34 H34            1.7191     4.0566     1.3271 H       
  35 H35           -0.0599     5.2762     0.1444 H       
  36 H36           -1.8071     4.0474    -1.0754 H       
  37 H37           -1.7823     1.5888    -1.1247 H       
  38 H38            1.8393    -9.2597     0.8617 H       
  39 H39            0.3092    -9.3789    -0.0466 H       
  40 H40            2.2305   -10.5895    -1.1554 H       
  41 H41            1.5115    -9.3185    -2.1740 H       
  42 H42            4.2204    -6.9494    -1.6996 H       
  43 H43            2.6489    -7.2380    -2.4851 H       
  44 H44            2.3036    -5.7310    -0.5999 H       
  45 H45            3.1521    -6.8520     0.4974 H       
  46 H46            5.8657    -8.1252    -2.0452 H       
  47 H47            7.2061    -9.1917    -3.8103 H       
  48 H48            4.1536   -11.8714    -4.6710 H       
  49 H49            2.7145   -10.8978    -2.9301 H       
@<TRIPOS>BOND
   1    1    2 1
   2    1   13 ar
   3    1   17 ar
   4    2    3 3
   5    3    4 1
   6    4    5 ar
   7    4    9 ar
   8    5    6 ar
   9    5   29 1
  10    6    7 ar
  11    6   30 1
  12    7    8 ar
  13    7   10 1
  14    8    9 ar
  15    8   31 1
  16    9   32 1
  17   10   11 2
  18   10   12 am
  19   12   18 1
  20   12   22 1
  21   13   14 ar
  22   13   33 1
  23   14   15 ar
  24   14   34 1
  25   15   16 ar
  26   15   35 1
  27   16   17 ar
  28   16   36 1
  29   17   37 1
  30   18   19 1
  31   18   38 1
  32   18   39 1
  33   19   20 1
  34   19   40 1
  35   19   41 1
  36   20   21 1
  37   20   23 1
  38   21   22 1
  39   21   42 1
  40   21   43 1
  41   22   44 1
  42   22   45 1
  43   23   24 ar
  44   23   28 ar
  45   24   25 ar
  46   24   46 1
  47   25   26 ar
  48   25   47 1
  49   26   27 ar
  50   27   28 ar
  51   27   48 1
  52   28   49 1

#	End of record

