#	Name: ASD03330318
#	Creating user name:	WinNT
#	Creation time:	15. 06. 2019 20:37

#	Modifying user name:	WinNT
#	Modification time:	15. 06. 2019 20:37

#	Program:	/corina/corina34_cracker 3.40 0067  02.08.2006

@<TRIPOS>MOLECULE
ASD03330318
  67   70    0    0    0
SMALL
NO_CHARGES


@<TRIPOS>ATOM
   1 C1            -0.2166     0.2247     0.7690 C.3     
   2 N2            -0.2935    -1.1833     0.3508 N.am    
   3 C3             0.3394    -1.5619    -0.9271 C.3     
   4 C4             1.6737    -0.8592    -0.9821 C.2     
   5 N5             2.0591     0.1101    -0.1146 N.pl3   
   6 C6             1.2500     0.6044     1.0019 C.3     
   7 C7             2.6912    -1.0474    -1.8605 C.2     
   8 N8             3.6829    -0.1906    -1.5276 N.2     
   9 C9             3.3094     0.5093    -0.4810 C.2     
  10 C10            4.1118     1.5569     0.1881 C.ar    
  11 C11            5.2299     2.0963    -0.4485 C.ar    
  12 C12            2.7119    -2.0116    -2.9748 C.2     
  13 O13            1.7527    -2.7327    -3.1727 O.2     
  14 C14            3.8141    -3.0527    -4.8822 C.3     
  15 N15            3.7936    -2.0942    -3.7745 N.am    
  16 S16           -1.0666    -2.3099     1.2864 S.o2    
  17 C17            5.9739     3.0733     0.1806 C.ar    
  18 C18            5.6130     3.5182     1.4399 C.ar    
  19 C19            4.5054     2.9873     2.0764 C.ar    
  20 C20            3.7501     2.0136     1.4558 C.ar    
  21 O21           -1.0619    -1.8011     2.6131 O.2     
  22 C22           -2.7519    -2.3462     0.7733 C.ar    
  23 O23           -0.5132    -3.5708     0.9356 O.2     
  24 C24           -3.1498    -3.2082    -0.2315 C.ar    
  25 C25           -4.4716    -3.2370    -0.6344 C.ar    
  26 C26           -4.9989    -1.5450     0.9780 C.ar    
  27 C27           -3.6767    -1.5167     1.3797 C.ar    
  28 C28           -5.3966    -2.4033    -0.0315 C.ar    
  29 Cl29          -7.0570    -2.4390    -0.5370 Cl      
  30 C30            5.2411    -3.4012    -5.2186 C.2     
  31 O31            6.1431    -2.6721    -4.8640 O.2     
  32 C32            3.1385    -2.4318    -6.1065 C.3     
  33 C33            3.8911    -1.1643    -6.5163 C.3     
  34 C34            3.1586    -3.4333    -7.2629 C.3     
  35 C35            1.6901    -2.0767    -5.7645 C.3     
  36 N36            5.5150    -4.5230    -5.9137 N.am    
  37 C37            6.8925    -4.8173    -6.3162 C.3     
  38 H38           -0.6374     0.8594    -0.0109 H       
  39 H39           -0.7790     0.3611     1.6927 H       
  40 H40            0.4855    -2.6414    -0.9645 H       
  41 H41           -0.2849    -1.2409    -1.7610 H       
  42 H42            1.3398     1.6888     1.0646 H       
  43 H43            1.5992     0.1550     1.9316 H       
  44 H44            5.5128     1.7495    -1.4314 H       
  45 H45            3.2785    -3.9562    -4.5908 H       
  46 H46            4.5585    -1.5190    -3.6166 H       
  47 H47            6.8398     3.4914    -0.3110 H       
  48 H48            6.1988     4.2829     1.9283 H       
  49 H49            4.2288     3.3388     3.0595 H       
  50 H50            2.8856     1.5999     1.9537 H       
  51 H51           -2.4277    -3.8589    -0.7020 H       
  52 H52           -4.7823    -3.9100    -1.4199 H       
  53 H53           -5.7212    -0.8966     1.4516 H       
  54 H54           -3.3661    -0.8469     2.1680 H       
  55 H55            4.9230    -1.4173    -6.7600 H       
  56 H56            3.4098    -0.7220    -7.3886 H       
  57 H57            3.8768    -0.4508    -5.6925 H       
  58 H58            2.6096    -4.3303    -6.9763 H       
  59 H59            2.6906    -2.9855    -8.1396 H       
  60 H60            4.1899    -3.6977    -7.4967 H       
  61 H61            1.6757    -1.3632    -4.9406 H       
  62 H62            1.2088    -1.6343    -6.6367 H       
  63 H63            1.1538    -2.9796    -5.4725 H       
  64 H64            4.8000    -5.1354    -6.1474 H       
  65 H65            6.9174    -5.7588    -6.8649 H       
  66 H66            7.2640    -4.0152    -6.9539 H       
  67 H67            7.5210    -4.8970    -5.4292 H       
@<TRIPOS>BOND
   1    1    2 1
   2    1    6 1
   3    1   38 1
   4    1   39 1
   5    2    3 1
   6    2   16 am
   7    3    4 1
   8    3   40 1
   9    3   41 1
  10    4    5 1
  11    4    7 2
  12    5    6 1
  13    5    9 1
  14    6   42 1
  15    6   43 1
  16    7    8 1
  17    7   12 1
  18    8    9 2
  19    9   10 1
  20   10   11 ar
  21   10   20 ar
  22   11   17 ar
  23   11   44 1
  24   12   13 2
  25   12   15 am
  26   14   15 1
  27   14   30 1
  28   14   32 1
  29   14   45 1
  30   15   46 1
  31   16   21 2
  32   16   22 1
  33   16   23 2
  34   17   18 ar
  35   17   47 1
  36   18   19 ar
  37   18   48 1
  38   19   20 ar
  39   19   49 1
  40   20   50 1
  41   22   24 ar
  42   22   27 ar
  43   24   25 ar
  44   24   51 1
  45   25   28 ar
  46   25   52 1
  47   26   27 ar
  48   26   28 ar
  49   26   53 1
  50   27   54 1
  51   28   29 1
  52   30   31 2
  53   30   36 am
  54   32   33 1
  55   32   34 1
  56   32   35 1
  57   33   55 1
  58   33   56 1
  59   33   57 1
  60   34   58 1
  61   34   59 1
  62   34   60 1
  63   35   61 1
  64   35   62 1
  65   35   63 1
  66   36   37 1
  67   36   64 1
  68   37   65 1
  69   37   66 1
  70   37   67 1

#	End of record

