#	Name: ASD01231364
#	Creating user name:	WinNT
#	Creation time:	15. 06. 2019 19:15

#	Modifying user name:	WinNT
#	Modification time:	15. 06. 2019 19:15

#	Program:	/corina/corina34_cracker 3.40 0067  02.08.2006

@<TRIPOS>MOLECULE
ASD01231364
  57   59    0    0    0
SMALL
NO_CHARGES


@<TRIPOS>ATOM
   1 N1             0.0317     1.2770     0.0277 N.am    
   2 C2            -0.0447    -0.0549    -0.1637 C.2     
   3 O3            -1.1201    -0.6181    -0.0959 O.2     
   4 N4             1.0710    -0.7624    -0.4303 N.am    
   5 S5            -1.3524     2.1688     0.2050 S.o2    
   6 O6            -1.0206     3.4415    -0.3328 O.2     
   7 O7            -2.3649     1.3653    -0.3854 O.2     
   8 C8            -1.5930     2.2791     1.9996 C.3     
   9 S9             1.5098     2.0208     0.0925 S.o2    
  10 O10            1.2499     3.2616     0.7345 O.2     
  11 O11            2.3634     1.0529     0.6872 O.2     
  12 C12            1.9601     2.2850    -1.6447 C.3     
  13 C13            0.9764    -2.1925    -0.7339 C.3     
  14 C14            2.1852    -2.6410    -1.5824 C.3     
  15 C15            3.1853    -3.1181    -0.5079 C.3     
  16 C16            2.3315    -3.5383     0.6692 C.ar    
  17 C17            2.6407    -4.3239     1.7671 C.ar    
  18 C18            1.6853    -4.5772     2.7317 C.ar    
  19 C19            0.4158    -4.0452     2.6018 C.ar    
  20 C20            0.1056    -3.2616     1.5077 C.ar    
  21 C21            1.0623    -3.0065     0.5394 C.ar    
  22 C22            2.0261    -5.4330     3.9244 C.3     
  23 C23            2.5524    -4.5605     5.0347 C.ar    
  24 C24            1.6806    -4.0209     5.9622 C.ar    
  25 C25            2.1633    -3.2207     6.9805 C.ar    
  26 C26            3.5180    -2.9602     7.0719 C.ar    
  27 C27            4.3897    -3.5004     6.1453 C.ar    
  28 C28            3.9073    -4.3044     5.1292 C.ar    
  29 C29            5.8663    -3.2162     6.2447 C.3     
  30 F30            6.1088    -2.3893     7.3468 F       
  31 F31            6.5632    -4.4190     6.4018 F       
  32 F32            6.2976    -2.5763     5.0778 F       
  33 C33            1.2128    -2.6317     7.9908 C.3     
  34 O34            1.0683    -3.5326     9.0906 O.3     
  35 H35            1.9366    -0.3248    -0.4212 H       
  36 H36           -0.6746     2.6325     2.4683 H       
  37 H37           -2.4027     2.9762     2.2155 H       
  38 H38           -1.8464     1.2948     2.3934 H       
  39 H39            1.2090     2.9134    -2.1233 H       
  40 H40            2.9318     2.7760    -1.6976 H       
  41 H41            2.0101     1.3243    -2.1573 H       
  42 H42            0.0455    -2.4063    -1.2591 H       
  43 H43            1.9098    -3.4603    -2.2464 H       
  44 H44            2.5940    -1.8034    -2.1476 H       
  45 H45            3.7625    -3.9653    -0.8781 H       
  46 H46            3.8499    -2.3030    -0.2213 H       
  47 H47            3.6320    -4.7401     1.8691 H       
  48 H48           -0.3326    -4.2426     3.3550 H       
  49 H49           -0.8863    -2.8464     1.4070 H       
  50 H50            1.1315    -5.9544     4.2649 H       
  51 H51            2.7865    -6.1616     3.6434 H       
  52 H52            0.6223    -4.2244     5.8907 H       
  53 H53            3.8951    -2.3344     7.8672 H       
  54 H54            4.5889    -4.7296     4.4073 H       
  55 H55            1.6072    -1.6809     8.3495 H       
  56 H56            0.2413    -2.4692     7.5241 H       
  57 H57            0.4692    -3.2175     9.7811 H       
@<TRIPOS>BOND
   1    1    2 am
   2    1    5 am
   3    1    9 am
   4    2    3 2
   5    2    4 am
   6    4   13 1
   7    4   35 1
   8    5    6 2
   9    5    7 2
  10    5    8 1
  11    8   36 1
  12    8   37 1
  13    8   38 1
  14    9   10 2
  15    9   11 2
  16    9   12 1
  17   12   39 1
  18   12   40 1
  19   12   41 1
  20   13   14 1
  21   13   21 1
  22   13   42 1
  23   14   15 1
  24   14   43 1
  25   14   44 1
  26   15   16 1
  27   15   45 1
  28   15   46 1
  29   16   17 ar
  30   16   21 ar
  31   17   18 ar
  32   17   47 1
  33   18   19 ar
  34   18   22 1
  35   19   20 ar
  36   19   48 1
  37   20   21 ar
  38   20   49 1
  39   22   23 1
  40   22   50 1
  41   22   51 1
  42   23   24 ar
  43   23   28 ar
  44   24   25 ar
  45   24   52 1
  46   25   26 ar
  47   25   33 1
  48   26   27 ar
  49   26   53 1
  50   27   28 ar
  51   27   29 1
  52   28   54 1
  53   29   30 1
  54   29   31 1
  55   29   32 1
  56   33   34 1
  57   33   55 1
  58   33   56 1
  59   34   57 1

#	End of record

