#	Name: ASD01914163
#	Creating user name:	WinNT
#	Creation time:	15. 06. 2019 20:03

#	Modifying user name:	WinNT
#	Modification time:	15. 06. 2019 20:03

#	Program:	/corina/corina34_cracker 3.40 0067  02.08.2006

@<TRIPOS>MOLECULE
ASD01914163
  46   49    0    0    0
SMALL
NO_CHARGES


@<TRIPOS>ATOM
   1 C1            -1.0003     1.6622    -0.2117 C.ar    
   2 C2            -0.8124     0.1952    -0.2045 C.2     
   3 N3            -1.7605    -0.7211    -0.1278 N.2     
   4 C4            -1.1231    -1.9017    -0.1557 C.2     
   5 N5             0.1513    -1.6590    -0.2457 N.2     
   6 O6             0.3541    -0.4637    -0.2803 O.3     
   7 C7            -1.7675    -3.2625    -0.0932 C.3     
   8 C8            -1.4213    -4.0503    -1.3587 C.3     
   9 C9            -2.1021    -5.4201    -1.3112 C.3     
  10 C10           -1.5851    -6.2011    -0.0990 C.3     
  11 N11           -1.7831    -5.3867     1.1078 N.am    
  12 C12           -1.2467    -4.0190     1.1329 C.3     
  13 C13           -2.4442    -5.8846     2.1714 C.2     
  14 C14           -2.5235    -5.1044     3.4233 C.ar    
  15 O15           -2.9752    -6.9759     2.1007 O.2     
  16 C16           -1.4789    -3.6975     5.0662 C.ar    
  17 C17           -3.7896    -4.3189     5.3079 C.ar    
  18 C18           -3.7212    -5.0490     4.1398 C.ar    
  19 C19           -1.4000    -4.4244     3.8974 C.ar    
  20 C20           -0.0951    -6.4987    -0.2781 C.3     
  21 C21           -2.6709    -3.6405     5.7710 C.ar    
  22 C22            0.1105     2.5006    -0.2983 C.ar    
  23 C23           -0.0801     3.8717    -0.3041 C.ar    
  24 C24           -1.3779     4.3606    -0.2229 C.ar    
  25 C25           -2.4365     3.4675    -0.1392 C.ar    
  26 N26           -2.2258     2.1690    -0.1413 N.ar    
  27 F27           -1.6068     5.6921    -0.2252 F       
  28 Cl28          -5.2770    -4.2485     6.2002 Cl      
  29 F29           -2.7425    -2.9270     6.9160 F       
  30 H30           -2.8491    -3.1498    -0.0193 H       
  31 H31           -1.7691    -3.5021    -2.2343 H       
  32 H32           -0.3412    -4.1835    -1.4194 H       
  33 H33           -3.1806    -5.2876    -1.2256 H       
  34 H34           -1.8742    -5.9715    -2.2234 H       
  35 H35           -2.1377    -7.1358    -0.0037 H       
  36 H36           -0.1576    -4.0532     1.1057 H       
  37 H37           -1.5760    -3.5140     2.0410 H       
  38 H38           -0.6113    -3.1677     5.4310 H       
  39 H39           -4.5921    -5.5764     3.7796 H       
  40 H40           -0.4703    -4.4682     3.3494 H       
  41 H41            0.4546    -5.5616    -0.3666 H       
  42 H42            0.2708    -7.0544     0.5853 H       
  43 H43            0.0510    -7.0923    -1.1806 H       
  44 H44            1.1058     2.0860    -0.3596 H       
  45 H45            0.7610     4.5459    -0.3698 H       
  46 H46           -3.4470     3.8434    -0.0756 H       
@<TRIPOS>BOND
   1    1    2 1
   2    1   22 ar
   3    1   26 ar
   4    2    3 2
   5    2    6 1
   6    3    4 1
   7    4    5 2
   8    4    7 1
   9    5    6 1
  10    7    8 1
  11    7   12 1
  12    7   30 1
  13    8    9 1
  14    8   31 1
  15    8   32 1
  16    9   10 1
  17    9   33 1
  18    9   34 1
  19   10   11 1
  20   10   20 1
  21   10   35 1
  22   11   12 1
  23   11   13 am
  24   12   36 1
  25   12   37 1
  26   13   14 1
  27   13   15 2
  28   14   19 ar
  29   14   18 ar
  30   16   21 ar
  31   16   19 ar
  32   16   38 1
  33   17   18 ar
  34   17   28 1
  35   17   21 ar
  36   18   39 1
  37   19   40 1
  38   20   41 1
  39   20   42 1
  40   20   43 1
  41   21   29 1
  42   22   23 ar
  43   22   44 1
  44   23   24 ar
  45   23   45 1
  46   24   25 ar
  47   24   27 1
  48   25   26 ar
  49   25   46 1

#	End of record

