#	Name: ASD04882093
#	Creating user name:	WinNT
#	Creation time:	15. 06. 2019 20:54

#	Modifying user name:	WinNT
#	Modification time:	15. 06. 2019 20:54

#	Program:	/corina/corina34_cracker 3.40 0067  02.08.2006

@<TRIPOS>MOLECULE
ASD04882093
  83   88    0    0    0
SMALL
NO_CHARGES


@<TRIPOS>ATOM
   1 C1             1.8179     2.1956    -1.4695 C.ar    
   2 C2             1.8165     0.8254    -1.2986 C.ar    
   3 C3             0.6249     0.1608    -1.0366 C.ar    
   4 C4            -0.5613     0.8777    -0.9475 C.ar    
   5 C5            -0.5528     2.2482    -1.1195 C.ar    
   6 C6             0.6348     2.9064    -1.3801 C.ar    
   7 C7            -1.8563     0.1610    -0.6640 C.3     
   8 N8             0.6199    -1.2252    -0.8637 N.3     
   9 C9             0.2776    -1.5820     0.5202 C.3     
  10 C10            1.9117    -1.8089    -1.2510 C.3     
  11 C11            1.8390    -3.3323    -1.1229 C.3     
  12 N12            1.4968    -3.6892     0.2610 N.3     
  13 C13            0.2049    -3.1054     0.6483 C.3     
  14 C14            1.4917    -5.0709     0.4334 C.ar    
  15 C15            0.6283    -5.8606    -0.3165 C.ar    
  16 C16            2.3592    -5.6624     1.3566 C.ar    
  17 C17            2.3539    -7.0336     1.5274 C.ar    
  18 C18            1.4804    -7.8251     0.7758 C.ar    
  19 C19            0.6197    -7.2279    -0.1489 C.ar    
  20 N20            3.2333    -4.8657     2.1074 N.am    
  21 C21            3.5434    -5.2130     3.3722 C.2     
  22 C22            4.3779    -4.3211     4.1980 C.ar    
  23 O23            3.1349    -6.2621     3.8323 O.2     
  24 C24            1.4712    -9.2895     0.9548 C.2     
  25 O25            2.2237    -9.8087     1.7565 O.2     
  26 N26            0.6287   -10.0518     0.2298 N.am    
  27 C27            0.6196   -11.5059     0.4075 C.3     
  28 C28           -0.4196   -12.1275    -0.5276 C.3     
  29 C29           -0.4291   -13.6462    -0.3420 C.3     
  30 N30           -1.4241   -14.2414    -1.2375 N.am    
  31 C31           -1.1435   -14.6886    -2.6068 C.3     
  32 C32           -2.5237   -14.8222    -3.2878 C.3     
  33 C33           -3.4510   -15.0686    -2.0752 C.3     
  34 C34           -2.7101   -14.4533    -0.9085 C.2     
  35 O35           -3.2060   -14.1837     0.1650 O.2     
  36 C36            4.8383    -4.7423     5.5193 C.ar    
  37 C37            4.7475    -3.0657     3.7340 C.ar    
  38 C38            5.5339    -2.2279     4.5137 C.ar    
  39 C39            5.9698    -2.5967     5.7489 C.ar    
  40 C40            5.6385    -3.8550     6.2796 C.ar    
  41 C41            6.0806    -4.2503     7.5539 C.ar    
  42 C42            5.7386    -5.4775     8.0343 C.ar    
  43 C43            4.9562    -6.3501     7.2816 C.ar    
  44 C44            4.5057    -5.9969     6.0445 C.ar    
  45 H45            2.7445     2.7134    -1.6687 H       
  46 H46            2.7406     0.2709    -1.3689 H       
  47 H47           -1.4749     2.8062    -1.0503 H       
  48 H48            0.6388     3.9781    -1.5138 H       
  49 H49           -1.9804     0.0473     0.4130 H       
  50 H50           -2.6876     0.7399    -1.0664 H       
  51 H51           -1.8376    -0.8225    -1.1334 H       
  52 H52            1.0420    -1.1964     1.1948 H       
  53 H53           -0.6885    -1.1488     0.7791 H       
  54 H54            2.1370    -1.5411    -2.2833 H       
  55 H55            2.6947    -1.4259    -0.5965 H       
  56 H56            1.0746    -3.7179    -1.7975 H       
  57 H57            2.8051    -3.7656    -1.3818 H       
  58 H58           -0.0203    -3.3732     1.6806 H       
  59 H59           -0.5780    -3.4884    -0.0062 H       
  60 H60           -0.0376    -5.4013    -1.0321 H       
  61 H61            3.0234    -7.4928     2.2397 H       
  62 H62           -0.0555    -7.8385    -0.7300 H       
  63 H63            3.6153    -4.0641     1.7170 H       
  64 H64            0.0284    -9.6375    -0.4097 H       
  65 H65            1.6056   -11.9068     0.1728 H       
  66 H66            0.3671   -11.7441     1.4408 H       
  67 H67           -1.4056   -11.7266    -0.2929 H       
  68 H68           -0.1671   -11.8894    -1.5609 H       
  69 H69            0.5569   -14.0471    -0.5768 H       
  70 H70           -0.6816   -13.8843     0.6913 H       
  71 H71           -0.5357   -13.9490    -3.1281 H       
  72 H72           -0.6353   -15.6528    -2.5920 H       
  73 H73           -2.7942   -13.9016    -3.8050 H       
  74 H74           -2.5410   -15.6713    -3.9710 H       
  75 H75           -4.4118   -14.5756    -2.2233 H       
  76 H76           -3.5905   -16.1373    -1.9127 H       
  77 H77            4.4208    -2.7381     2.7582 H       
  78 H78            5.8075    -1.2565     4.1288 H       
  79 H79            6.5800    -1.9172     6.3255 H       
  80 H80            6.6884    -3.5844     8.1485 H       
  81 H81            6.0795    -5.7790     9.0137 H       
  82 H82            4.6993    -7.3182     7.6855 H       
  83 H83            3.8998    -6.6826     5.4709 H       
@<TRIPOS>BOND
   1    1    2 ar
   2    1    6 ar
   3    1   45 1
   4    2    3 ar
   5    2   46 1
   6    3    4 ar
   7    3    8 1
   8    4    5 ar
   9    4    7 1
  10    5    6 ar
  11    5   47 1
  12    6   48 1
  13    7   49 1
  14    7   50 1
  15    7   51 1
  16    8    9 1
  17    8   10 1
  18    9   13 1
  19    9   52 1
  20    9   53 1
  21   10   11 1
  22   10   54 1
  23   10   55 1
  24   11   12 1
  25   11   56 1
  26   11   57 1
  27   12   13 1
  28   12   14 1
  29   13   58 1
  30   13   59 1
  31   14   15 ar
  32   14   16 ar
  33   15   19 ar
  34   15   60 1
  35   16   17 ar
  36   16   20 1
  37   17   18 ar
  38   17   61 1
  39   18   19 ar
  40   18   24 1
  41   19   62 1
  42   20   21 am
  43   20   63 1
  44   21   22 1
  45   21   23 2
  46   22   36 ar
  47   22   37 ar
  48   24   25 2
  49   24   26 am
  50   26   27 1
  51   26   64 1
  52   27   28 1
  53   27   65 1
  54   27   66 1
  55   28   29 1
  56   28   67 1
  57   28   68 1
  58   29   30 1
  59   29   69 1
  60   29   70 1
  61   30   31 1
  62   30   34 am
  63   31   32 1
  64   31   71 1
  65   31   72 1
  66   32   33 1
  67   32   73 1
  68   32   74 1
  69   33   34 1
  70   33   75 1
  71   33   76 1
  72   34   35 2
  73   36   40 ar
  74   36   44 ar
  75   37   38 ar
  76   37   77 1
  77   38   39 ar
  78   38   78 1
  79   39   40 ar
  80   39   79 1
  81   40   41 ar
  82   41   42 ar
  83   41   80 1
  84   42   43 ar
  85   42   81 1
  86   43   44 ar
  87   43   82 1
  88   44   83 1

#	End of record

