#	Name: ASD04882069
#	Creating user name:	WinNT
#	Creation time:	15. 06. 2019 20:54

#	Modifying user name:	WinNT
#	Modification time:	15. 06. 2019 20:54

#	Program:	/corina/corina34_cracker 3.40 0067  02.08.2006

@<TRIPOS>MOLECULE
ASD04882069
  80   83    0    0    0
SMALL
NO_CHARGES


@<TRIPOS>ATOM
   1 N1            -0.1363     1.5551    -0.0363 N.am    
   2 C2            -0.0765     0.1555    -0.0458 C.ar    
   3 C3            -1.2529    -0.5954     0.0294 C.ar    
   4 C4            -1.1950    -1.9843     0.0200 C.ar    
   5 C5             0.0210    -2.6254    -0.0639 C.ar    
   6 C6             1.2013    -1.8806    -0.1398 C.ar    
   7 C7             1.1456    -0.4840    -0.1354 C.ar    
   8 N8            -2.4846     0.0486     0.1143 N.3     
   9 C9            -2.6116     0.7769     1.3844 C.3     
  10 N10           -5.0473     0.5805     1.2345 N.3     
  11 C11           -3.9418     1.5336     1.4046 C.3     
  12 C12            0.8454     2.2676     0.5511 C.2     
  13 O13            1.7295     1.6965     1.1625 O.2     
  14 C14            0.8485     3.7306     0.4536 C.2     
  15 C15            2.5038    -2.5676    -0.2291 C.2     
  16 N16            2.5562    -3.9143    -0.2375 N.am    
  17 O17            3.5301    -1.9188    -0.2952 O.2     
  18 C18           -6.2828     1.2265     1.3197 C.ar    
  19 C19           -6.6026     2.2379     0.4232 C.ar    
  20 C20            1.7782     4.5692     0.9988 C.2     
  21 C21            3.8496    -4.5965    -0.3261 C.3     
  22 C22            3.6293    -6.1106    -0.3169 C.3     
  23 N23            4.9227    -6.7928    -0.4056 N.am    
  24 C24            5.5953    -7.1108     0.7183 C.2     
  25 O25            6.7840    -7.7377     0.6368 O.3     
  26 O26            5.1289    -6.8316     1.8050 O.2     
  27 C27            1.3920     5.8753     0.6592 C.2     
  28 C28            0.2579     5.7780    -0.0691 C.2     
  29 O29           -0.0635     4.4838    -0.1954 O.3     
  30 C30           -4.9203    -0.1478    -0.0356 C.3     
  31 C31           -3.5901    -0.9045    -0.0558 C.3     
  32 C32           -7.8255     2.8743     0.5099 C.ar    
  33 C33           -8.7305     2.5059     1.4881 C.ar    
  34 C34           -8.4152     1.4991     2.3825 C.ar    
  35 C35           -7.1968     0.8548     2.2978 C.ar    
  36 C36           -6.8543    -0.2424     3.2725 C.3     
  37 C37            5.4851    -7.1293    -1.7158 C.3     
  38 C38            7.4520    -8.0494     1.8877 C.3     
  39 C39            6.5604    -8.9662     2.7275 C.3     
  40 C40            8.7779    -8.7550     1.5959 C.3     
  41 C41            7.7218    -6.7552     2.6580 C.3     
  42 H42           -0.8822     2.0115    -0.4560 H       
  43 H43           -2.1057    -2.5620     0.0790 H       
  44 H44            0.0627    -3.7046    -0.0706 H       
  45 H45            2.0559     0.0941    -0.1944 H       
  46 H46           -2.5829     0.0698     2.2135 H       
  47 H47           -1.7888     1.4851     1.4814 H       
  48 H48           -4.0513     2.0512     2.3576 H       
  49 H49           -3.9595     2.2598     0.5919 H       
  50 H50            1.7375    -4.4319    -0.1848 H       
  51 H51           -5.8959     2.5266    -0.3407 H       
  52 H52            2.6429     4.2830     1.5791 H       
  53 H53            4.3501    -4.3078    -1.2504 H       
  54 H54            4.4684    -4.3142     0.5256 H       
  55 H55            3.1289    -6.3993     0.6074 H       
  56 H56            3.0105    -6.3929    -1.1686 H       
  57 H57            1.9048     6.7866     0.9292 H       
  58 H58           -0.2960     6.6069    -0.4843 H       
  59 H59           -5.7431    -0.8560    -0.1325 H       
  60 H60           -4.9490     0.5593    -0.8646 H       
  61 H61           -3.4806    -1.4221    -1.0088 H       
  62 H62           -3.5725    -1.6307     0.7569 H       
  63 H63           -8.0748     3.6609    -0.1869 H       
  64 H64           -9.6856     3.0056     1.5542 H       
  65 H65           -9.1242     1.2140     3.1456 H       
  66 H66           -7.1829    -1.2009     2.8707 H       
  67 H67           -5.7759    -0.2649     3.4299 H       
  68 H68           -7.3562    -0.0549     4.2217 H       
  69 H69            6.1023    -6.3033    -2.0693 H       
  70 H70            6.0958    -8.0280    -1.6291 H       
  71 H71            4.6756    -7.3070    -2.4238 H       
  72 H72            6.3682    -9.8882     2.1787 H       
  73 H73            7.0618    -9.2002     3.6666 H       
  74 H74            5.6158    -8.4636     2.9354 H       
  75 H75            9.4131    -8.1018     0.9977 H       
  76 H76            9.2794    -8.9889     2.5350 H       
  77 H77            8.5857    -9.6769     1.0472 H       
  78 H78            6.7772    -6.2525     2.8659 H       
  79 H79            8.2233    -6.9892     3.5971 H       
  80 H80            8.3570    -6.1020     2.0598 H       
@<TRIPOS>BOND
   1    1    2 1
   2    1   12 am
   3    1   42 1
   4    2    3 ar
   5    2    7 ar
   6    3    4 ar
   7    3    8 1
   8    4    5 ar
   9    4   43 1
  10    5    6 ar
  11    5   44 1
  12    6    7 ar
  13    6   15 1
  14    7   45 1
  15    8    9 1
  16    8   31 1
  17    9   11 1
  18    9   46 1
  19    9   47 1
  20   10   11 1
  21   10   18 1
  22   10   30 1
  23   11   48 1
  24   11   49 1
  25   12   13 2
  26   12   14 1
  27   14   20 2
  28   14   29 1
  29   15   16 am
  30   15   17 2
  31   16   21 1
  32   16   50 1
  33   18   19 ar
  34   18   35 ar
  35   19   32 ar
  36   19   51 1
  37   20   27 1
  38   20   52 1
  39   21   22 1
  40   21   53 1
  41   21   54 1
  42   22   23 1
  43   22   55 1
  44   22   56 1
  45   23   24 am
  46   23   37 1
  47   24   25 1
  48   24   26 2
  49   25   38 1
  50   27   28 2
  51   27   57 1
  52   28   29 1
  53   28   58 1
  54   30   31 1
  55   30   59 1
  56   30   60 1
  57   31   61 1
  58   31   62 1
  59   32   33 ar
  60   32   63 1
  61   33   34 ar
  62   33   64 1
  63   34   35 ar
  64   34   65 1
  65   35   36 1
  66   36   66 1
  67   36   67 1
  68   36   68 1
  69   37   69 1
  70   37   70 1
  71   37   71 1
  72   38   39 1
  73   38   40 1
  74   38   41 1
  75   39   72 1
  76   39   73 1
  77   39   74 1
  78   40   75 1
  79   40   76 1
  80   40   77 1
  81   41   78 1
  82   41   79 1
  83   41   80 1

#	End of record

