#	Name: ASD02230003
#	Creating user name:	WinNT
#	Creation time:	15. 06. 2019 20:20

#	Modifying user name:	WinNT
#	Modification time:	15. 06. 2019 20:20

#	Program:	/corina/corina34_cracker 3.40 0067  02.08.2006

@<TRIPOS>MOLECULE
ASD02230003
  64   67    0    0    0
SMALL
NO_CHARGES


@<TRIPOS>ATOM
   1 C1             5.8771     0.5574    -2.0718 C.ar    
   2 C2             6.7128    -0.5365    -2.1338 C.ar    
   3 C3             6.1654     1.6982    -2.8250 C.ar    
   4 C4             7.3070     1.7198    -3.6405 C.ar    
   5 C5             8.1374     0.6079    -3.6901 C.ar    
   6 C6             7.8396    -0.5116    -2.9399 C.ar    
   7 N7             7.6055     2.8501    -4.3964 N.am    
   8 C8             8.8882     3.1536    -4.6773 C.2     
   9 C9             9.2003     4.2839    -5.5770 C.ar    
  10 C10           10.5268     4.5872    -5.8874 C.ar    
  11 C11           10.8111     5.6435    -6.7283 C.ar    
  12 C12            9.7849     6.4015    -7.2631 C.ar    
  13 C13            8.4675     6.1065    -6.9591 C.ar    
  14 C14            8.1691     5.0494    -6.1247 C.ar    
  15 C15           11.6461     3.7632    -5.3050 C.3     
  16 O16            9.7885     2.4976    -4.1908 O.2     
  17 C17            5.2752     2.8721    -2.7637 C.2     
  18 N18            3.9592     2.7081    -2.5236 N.am    
  19 O19            5.7285     3.9885    -2.9298 O.2     
  20 N20            3.1344     3.8268    -2.3476 N.2     
  21 C21            1.8503     3.6749    -2.2322 C.2     
  22 C22            0.9707     4.8559    -2.1758 C.ar    
  23 C23            1.5220     6.1437    -2.1299 C.ar    
  24 C24           -0.4172     4.6985    -2.1737 C.ar    
  25 C25           -1.2346     5.8078    -2.1213 C.ar    
  26 C26           -0.6856     7.0778    -2.0712 C.ar    
  27 C27            0.6861     7.2471    -2.0776 C.ar    
  28 O28            2.8700     6.3090    -2.1362 O.3     
  29 C29            3.3588     7.6485    -2.2297 C.3     
  30 C30            4.8558     7.6502    -2.0563 C.ar    
  31 C31            5.5792     8.8282    -2.2400 C.ar    
  32 C32            6.9647     8.8217    -2.0777 C.ar    
  33 C33            7.6109     7.6514    -1.7368 C.ar    
  34 C34            6.8877     6.4858    -1.5559 C.ar    
  35 C35            5.5130     6.4871    -1.7098 C.ar    
  36 N36            4.9298     9.9907    -2.5800 N.2     
  37 C37            5.2479    11.1012    -2.0015 C.2     
  38 O38            3.9121     9.9713    -3.5643 O.3     
  39 H39            4.9979     0.5313    -1.4451 H       
  40 H40            6.4885    -1.4176    -1.5509 H       
  41 H41            9.0172     0.6192    -4.3164 H       
  42 H42            8.4888    -1.3738    -2.9816 H       
  43 H43            6.8902     3.4193    -4.7209 H       
  44 H44           11.8372     5.8793    -6.9693 H       
  45 H45           10.0129     7.2275    -7.9205 H       
  46 H46            7.6710     6.7026    -7.3794 H       
  47 H47            7.1405     4.8202    -5.8882 H       
  48 H48           11.7577     2.8439    -5.8799 H       
  49 H49           12.5751     4.3320    -5.3453 H       
  50 H50           11.4151     3.5176    -4.2684 H       
  51 H51            3.5830     1.8154    -2.4727 H       
  52 H52            1.4267     2.6829    -2.1775 H       
  53 H53           -0.8494     3.7095    -2.2134 H       
  54 H54           -2.3077     5.6855    -2.1197 H       
  55 H55           -1.3329     7.9414    -2.0307 H       
  56 H56            1.1069     8.2410    -2.0379 H       
  57 H57            3.1058     8.0603    -3.2067 H       
  58 H58            2.9020     8.2573    -1.4495 H       
  59 H59            7.5304     9.7308    -2.2190 H       
  60 H60            8.6836     7.6450    -1.6112 H       
  61 H61            7.3981     5.5721    -1.2894 H       
  62 H62            4.9539     5.5743    -1.5669 H       
  63 H63            6.0748    11.1310    -1.3075 H       
  64 H64            4.6869    11.9997    -2.2120 H       
@<TRIPOS>BOND
   1    1    2 ar
   2    1    3 ar
   3    1   39 1
   4    2    6 ar
   5    2   40 1
   6    3    4 ar
   7    3   17 1
   8    4    5 ar
   9    4    7 1
  10    5    6 ar
  11    5   41 1
  12    6   42 1
  13    7    8 am
  14    7   43 1
  15    8    9 1
  16    8   16 2
  17    9   10 ar
  18    9   14 ar
  19   10   11 ar
  20   10   15 1
  21   11   12 ar
  22   11   44 1
  23   12   13 ar
  24   12   45 1
  25   13   14 ar
  26   13   46 1
  27   14   47 1
  28   15   48 1
  29   15   49 1
  30   15   50 1
  31   17   18 am
  32   17   19 2
  33   18   20 1
  34   18   51 1
  35   20   21 2
  36   21   22 1
  37   21   52 1
  38   22   23 ar
  39   22   24 ar
  40   23   28 1
  41   23   27 ar
  42   24   25 ar
  43   24   53 1
  44   25   26 ar
  45   25   54 1
  46   26   27 ar
  47   26   55 1
  48   27   56 1
  49   28   29 1
  50   29   30 1
  51   29   57 1
  52   29   58 1
  53   30   31 ar
  54   30   35 ar
  55   31   32 ar
  56   31   36 1
  57   32   33 ar
  58   32   59 1
  59   33   34 ar
  60   33   60 1
  61   34   35 ar
  62   34   61 1
  63   35   62 1
  64   36   37 2
  65   36   38 1
  66   37   63 1
  67   37   64 1

#	End of record

