#	Name: ASD01816419
#	Creating user name:	WinNT
#	Creation time:	15. 06. 2019 19:35

#	Modifying user name:	WinNT
#	Modification time:	15. 06. 2019 19:35

#	Program:	/corina/corina34_cracker 3.40 0067  02.08.2006

@<TRIPOS>MOLECULE
ASD01816419
  50   55    0    0    0
SMALL
NO_CHARGES


@<TRIPOS>ATOM
   1 C1            -0.0167     1.3813     0.0096 C.ar    
   2 C2             0.0021    -0.0041     0.0020 C.ar    
   3 C3             1.1984    -0.6909    -0.0127 C.ar    
   4 C4             2.4015     0.0059    -0.0200 C.ar    
   5 C5             2.3790     1.4106    -0.0127 C.ar    
   6 C6             1.1663     2.0916     0.0022 C.ar    
   7 N7             3.6053    -0.6772    -0.0338 N.pl3   
   8 C8             4.7970    -0.0586    -0.0409 C.2     
   9 C9             4.9000     1.3103    -0.0349 C.2     
  10 C10            3.6670     2.1301    -0.0207 C.2     
  11 C11            5.9971     2.2729    -0.0391 C.2     
  12 N12            5.4246     3.4960    -0.0282 N.am    
  13 N13            4.0323     3.3799    -0.0174 N.2     
  14 O14            7.1915     2.0229    -0.0498 O.2     
  15 C15            3.5779    -2.1419    -0.0404 C.3     
  16 C16            3.5560    -2.6375    -1.4634 C.ar    
  17 C17            4.7441    -2.8868    -2.1256 C.ar    
  18 C18            4.7272    -3.3406    -3.4300 C.ar    
  19 C19            3.5158    -3.5470    -4.0761 C.ar    
  20 C20            2.3246    -3.2962    -3.4085 C.ar    
  21 C21            2.3478    -2.8475    -2.1024 C.ar    
  22 N22            3.4955    -4.0071    -5.4001 N.pl3   
  23 C23            2.3909    -4.2483    -6.1420 C.2     
  24 C24            2.7979    -4.6777    -7.3589 C.2     
  25 C25            4.1970    -4.7000    -7.3621 C.2     
  26 N26            4.6159    -4.2927    -6.1910 N.2     
  27 C27            6.1265     4.7082    -0.0275 C.ar    
  28 C28            6.5615     5.2731    -1.2232 C.ar    
  29 C29            7.2514     6.4734    -1.1721 C.ar    
  30 C30            7.4844     7.0676     0.0553 C.ar    
  31 N31            7.0588     6.5065     1.1719 N.ar    
  32 C32            6.3939     5.3675     1.1669 C.ar    
  33 Cl33           5.8595     4.6776     2.6676 Cl      
  34 Cl34           8.3486     8.5714     0.1282 Cl      
  35 H35           -0.9602     1.9068     0.0170 H       
  36 H36           -0.9289    -0.5515     0.0080 H       
  37 H37            1.2004    -1.7709    -0.0181 H       
  38 H38            1.1506     3.1715     0.0081 H       
  39 H39            5.6983    -0.6536    -0.0513 H       
  40 H40            4.4654    -2.5242     0.4639 H       
  41 H41            2.6859    -2.4910     0.4797 H       
  42 H42            5.6861    -2.7261    -1.6225 H       
  43 H43            5.6555    -3.5345    -3.9469 H       
  44 H44            1.3807    -3.4554    -3.9086 H       
  45 H45            1.4215    -2.6522    -1.5825 H       
  46 H46            1.3676    -4.1216    -5.8206 H       
  47 H47            2.1562    -4.9543    -8.1824 H       
  48 H48            4.8234    -4.9978    -8.1900 H       
  49 H49            6.3661     4.7872    -2.1678 H       
  50 H50            7.6038     6.9398    -2.0803 H       
@<TRIPOS>BOND
   1    1    2 ar
   2    1    6 ar
   3    1   35 1
   4    2    3 ar
   5    2   36 1
   6    3    4 ar
   7    3   37 1
   8    4    5 ar
   9    4    7 1
  10    5    6 ar
  11    5   10 1
  12    6   38 1
  13    7    8 1
  14    7   15 1
  15    8    9 2
  16    8   39 1
  17    9   10 1
  18    9   11 1
  19   10   13 2
  20   11   12 am
  21   11   14 2
  22   12   13 1
  23   12   27 1
  24   15   16 1
  25   15   40 1
  26   15   41 1
  27   16   17 ar
  28   16   21 ar
  29   17   18 ar
  30   17   42 1
  31   18   19 ar
  32   18   43 1
  33   19   20 ar
  34   19   22 1
  35   20   21 ar
  36   20   44 1
  37   21   45 1
  38   22   23 1
  39   22   26 1
  40   23   24 2
  41   23   46 1
  42   24   25 1
  43   24   47 1
  44   25   26 2
  45   25   48 1
  46   27   28 ar
  47   27   32 ar
  48   28   29 ar
  49   28   49 1
  50   29   30 ar
  51   29   50 1
  52   30   31 ar
  53   30   34 1
  54   31   32 ar
  55   32   33 1

#	End of record

