#	Name: ASD03091456
#	Creating user name:	WinNT
#	Creation time:	15. 06. 2019 20:30

#	Modifying user name:	WinNT
#	Modification time:	15. 06. 2019 20:30

#	Program:	/corina/corina34_cracker 3.40 0067  02.08.2006

@<TRIPOS>MOLECULE
ASD03091456
  20   21    0    0    0
SMALL
NO_CHARGES


@<TRIPOS>ATOM
   1 C1            -0.0169     1.3961     0.0097 C.ar    
   2 C2             0.0021    -0.0041     0.0020 C.ar    
   3 C3             1.2299    -0.6779    -0.0124 C.ar    
   4 C4             2.3915     0.0652    -0.0187 C.ar    
   5 C5             2.3081     1.4521    -0.0105 C.ar    
   6 N6             1.1534     2.0658     0.0021 N.ar    
   7 C7            -1.3215     1.9150     0.0192 C.2     
   8 C8            -2.3046     1.0074     0.0193 C.2     
   9 S9            -1.6457    -0.6192     0.0138 S.3     
  10 C10           -3.7393     1.3286     0.0288 C.2     
  11 O11           -4.1023     2.4886     0.0373 O.2     
  12 O12           -4.6522     0.3365     0.0280 O.3     
  13 C13           -6.0505     0.7275     0.0377 C.3     
  14 H14            1.2662    -1.7573    -0.0182 H       
  15 H15            3.3539    -0.4247    -0.0294 H       
  16 H16            3.2167     2.0359    -0.0150 H       
  17 H17           -1.5186     2.9768     0.0264 H       
  18 H18           -6.2573     1.3151     0.9322 H       
  19 H19           -6.2668     1.3252    -0.8477 H       
  20 H20           -6.6771    -0.1644     0.0360 H       
@<TRIPOS>BOND
   1    1    2 ar
   2    1    6 ar
   3    1    7 1
   4    2    3 ar
   5    2    9 1
   6    3    4 ar
   7    3   14 1
   8    4    5 ar
   9    4   15 1
  10    5    6 ar
  11    5   16 1
  12    7    8 2
  13    7   17 1
  14    8    9 1
  15    8   10 1
  16   10   11 2
  17   10   12 1
  18   12   13 1
  19   13   18 1
  20   13   19 1
  21   13   20 1

#	End of record

