#	Name: ASD01885551
#	Creating user name:	WinNT
#	Creation time:	15. 06. 2019 19:49

#	Modifying user name:	WinNT
#	Modification time:	15. 06. 2019 19:49

#	Program:	/corina/corina34_cracker 3.40 0067  02.08.2006

@<TRIPOS>MOLECULE
ASD01885551
  55   59    0    0    0
SMALL
NO_CHARGES


@<TRIPOS>ATOM
   1 C1            -0.0166     1.3901     0.0132 C.ar    
   2 C2             0.0022    -0.0044     0.0150 C.ar    
   3 C3            -1.1834    -0.7089     0.0213 C.ar    
   4 C4            -2.3951    -0.0319     0.0253 C.ar    
   5 C5            -2.4181     1.3578     0.0231 C.ar    
   6 C6            -1.2358     2.0683     0.0236 C.ar    
   7 C7             1.2553     2.1497     0.0064 C.2     
   8 C8             2.1392     2.0743     1.1104 C.2     
   9 C9             3.2941     2.7657     1.1024 C.2     
  10 N10            3.6336     3.5481     0.0363 N.pl3   
  11 C11            2.8040     3.6480    -1.0545 C.2     
  12 C12            1.5937     2.9346    -1.0800 C.2     
  13 C13            4.7079     4.3378    -0.2405 C.2     
  14 N14            4.5151     4.8656    -1.4216 N.2     
  15 N15            3.3948     4.4661    -1.9122 N.2     
  16 C16            5.9016     4.5626     0.6516 C.3     
  17 O17           -3.5612    -0.7293     0.0311 O.3     
  18 C18            6.9736     3.5157     0.3425 C.3     
  19 Cl19          -3.9362     2.2000     0.0271 Cl      
  20 C20            8.3165     3.6453     1.0640 C.3     
  21 C21            7.3423     2.5323     1.4551 C.3     
  22 C22           -3.4680    -2.1503    -0.0884 C.3     
  23 C23           -4.7702    -2.6993    -0.6747 C.3     
  24 C24           -4.6703    -4.2207    -0.8026 C.3     
  25 C25           -4.4344    -4.8342     0.5790 C.3     
  26 C26           -3.1322    -4.2852     1.1653 C.3     
  27 C27           -3.2321    -2.7638     1.2932 C.3     
  28 O28           -4.3412    -6.2552     0.4596 O.3     
  29 C29            0.6727     3.0332    -2.2687 C.3     
  30 F30           -0.1514     4.1551    -2.1283 F       
  31 F31            1.4314     3.1553    -3.4377 F       
  32 F32           -0.1171     1.8809    -2.3436 F       
  33 H33            0.9445    -0.5321     0.0111 H       
  34 H34           -1.1689    -1.7888     0.0227 H       
  35 H35           -1.2539     3.1481     0.0222 H       
  36 H36            1.8855     1.4603     1.9618 H       
  37 H37            3.9604     2.7009     1.9500 H       
  38 H38            6.3053     5.5594     0.4740 H       
  39 H39            5.5975     4.4743     1.6945 H       
  40 H40            6.9867     3.1446    -0.6823 H       
  41 H41            9.2130     3.3592     0.5141 H       
  42 H42            8.4363     4.4765     1.7589 H       
  43 H43            6.8211     2.6313     2.4073 H       
  44 H44            7.5979     1.5139     1.1625 H       
  45 H45           -2.6372    -2.4058    -0.7461 H       
  46 H46           -5.6009    -2.4437    -0.0169 H       
  47 H47           -4.9382    -2.2622    -1.6589 H       
  48 H48           -5.5980    -4.6118    -1.2202 H       
  49 H49           -3.8396    -4.4763    -1.4603 H       
  50 H50           -5.2652    -4.5787     1.2367 H       
  51 H51           -2.9642    -4.7223     2.1496 H       
  52 H52           -2.3015    -4.5408     0.5076 H       
  53 H53           -2.3044    -2.3727     1.7109 H       
  54 H54           -4.0628    -2.5082     1.9509 H       
  55 H55           -4.1914    -6.7115     1.2989 H       
@<TRIPOS>BOND
   1    1    2 ar
   2    1    7 1
   3    1    6 ar
   4    2    3 ar
   5    2   33 1
   6    3    4 ar
   7    3   34 1
   8    4    5 ar
   9    4   17 1
  10    5    6 ar
  11    5   19 1
  12    6   35 1
  13    7    8 1
  14    7   12 2
  15    8    9 2
  16    8   36 1
  17    9   10 1
  18    9   37 1
  19   10   11 1
  20   10   13 1
  21   11   12 1
  22   11   15 2
  23   12   29 1
  24   13   14 2
  25   13   16 1
  26   14   15 1
  27   16   18 1
  28   16   38 1
  29   16   39 1
  30   17   22 1
  31   18   20 1
  32   18   21 1
  33   18   40 1
  34   20   21 1
  35   20   41 1
  36   20   42 1
  37   21   43 1
  38   21   44 1
  39   22   23 1
  40   22   27 1
  41   22   45 1
  42   23   24 1
  43   23   46 1
  44   23   47 1
  45   24   25 1
  46   24   48 1
  47   24   49 1
  48   25   26 1
  49   25   28 1
  50   25   50 1
  51   26   27 1
  52   26   51 1
  53   26   52 1
  54   27   53 1
  55   27   54 1
  56   28   55 1
  57   29   30 1
  58   29   31 1
  59   29   32 1

#	End of record

