#	Name: ASD09740543
#	Creating user name:	WinNT
#	Creation time:	15. 06. 2019 21:23

#	Modifying user name:	WinNT
#	Modification time:	15. 06. 2019 21:23

#	Program:	/corina/corina34_cracker 3.40 0067  02.08.2006

@<TRIPOS>MOLECULE
ASD09740543
  66   70    0    0    0
SMALL
NO_CHARGES


@<TRIPOS>ATOM
   1 N1            -0.2494     1.3303    -0.4102 N.2     
   2 C2            -0.0713     0.0340    -0.3541 C.2     
   3 C3             0.8180     2.0763    -0.4688 C.2     
   4 S4             2.2473     1.0468    -0.4534 S.3     
   5 C5             1.2150    -0.3790    -0.3641 C.2     
   6 C6             0.8275     3.5522    -0.5382 C.ar    
   7 C7            -0.3739     4.2569    -0.5440 C.ar    
   8 C8             2.0425     4.2418    -0.5922 C.ar    
   9 C9             2.0573     5.6184    -0.6565 C.ar    
  10 C10            0.8665     6.3304    -0.6677 C.ar    
  11 C11           -0.3588     5.6492    -0.6090 C.ar    
  12 O12            0.8869     7.6854    -0.7302 O.3     
  13 C13            2.1664     8.3186    -0.6662 C.3     
  14 C14            2.7837     8.3637    -2.0654 C.3     
  15 C15            2.0040     9.7439    -0.1342 C.3     
  16 C16           -1.5894     6.3814    -0.6209 C.1     
  17 N17           -2.5656     6.9623    -0.6303 N.1     
  18 C18            1.6762    -1.7820    -0.3095 C.ar    
  19 C19            2.6121    -2.2477    -1.2376 C.ar    
  20 C20            3.0385    -3.5587    -1.1812 C.ar    
  21 C21            2.5384    -4.4075    -0.2061 C.ar    
  22 C22            1.6124    -3.9518     0.7140 C.ar    
  23 C23            1.1824    -2.6419     0.6719 C.ar    
  24 C24            3.2992    -1.5330    -2.3812 C.3     
  25 C25            4.5096    -2.4202    -2.7423 C.3     
  26 C26            4.0429    -3.8181    -2.2840 C.3     
  27 N27            5.1769    -4.5887    -1.7678 N.am    
  28 C28            5.1402    -5.9359    -1.7857 C.2     
  29 N29            6.2212    -6.6446    -1.4040 N.am    
  30 O30            4.1320    -6.5118    -2.1463 O.2     
  31 C31            7.4049    -5.9679    -0.8565 C.3     
  32 C32            7.7505    -6.5968     0.4969 C.3     
  33 C33            7.9139    -8.1087     0.3255 C.3     
  34 C34            6.5968    -8.7135    -0.1659 C.3     
  35 C35            6.2359    -8.1090    -1.5216 C.3     
  36 O36            6.7413   -10.1292    -0.2963 O.3     
  37 H37           -0.8980    -0.6591    -0.3030 H       
  38 H38           -1.3136     3.7266    -0.4986 H       
  39 H39            2.9731     3.6936    -0.5831 H       
  40 H40            2.9993     6.1450    -0.6980 H       
  41 H41            2.8182     7.7540     0.0005 H       
  42 H42            3.7596     8.8467    -2.0166 H       
  43 H43            2.8993     7.3483    -2.4444 H       
  44 H44            2.1318     8.9283    -2.7321 H       
  45 H45            1.5642     9.7118     0.8626 H       
  46 H46            2.9799    10.2269    -0.0854 H       
  47 H47            1.3522    10.3085    -0.8009 H       
  48 H48            2.8745    -5.4330    -0.1648 H       
  49 H49            1.2286    -4.6213     1.4695 H       
  50 H50            0.4593    -2.2856     1.3906 H       
  51 H51            2.6251    -1.4477    -3.2335 H       
  52 H52            3.6351    -0.5460    -2.0632 H       
  53 H53            4.6938    -2.4059    -3.8165 H       
  54 H54            5.3970    -2.1080    -2.1916 H       
  55 H55            3.5691    -4.3483    -3.1101 H       
  56 H56            5.9541    -4.1294    -1.4131 H       
  57 H57            8.2444    -6.0894    -1.5410 H       
  58 H58            7.1904    -4.9076    -0.7227 H       
  59 H59            8.6818    -6.1700     0.8692 H       
  60 H60            6.9483    -6.3958     1.2069 H       
  61 H61            8.6995    -8.3088    -0.4032 H       
  62 H62            8.1841    -8.5556     1.2823 H       
  63 H63            5.8054    -8.4926     0.5504 H       
  64 H64            5.2515    -8.4621    -1.8288 H       
  65 H65            6.9794    -8.4033    -2.2624 H       
  66 H66            5.9428   -10.5793    -0.6046 H       
@<TRIPOS>BOND
   1    1    2 1
   2    1    3 2
   3    2    5 2
   4    2   37 1
   5    3    4 1
   6    3    6 1
   7    4    5 1
   8    5   18 1
   9    6    7 ar
  10    6    8 ar
  11    7   11 ar
  12    7   38 1
  13    8    9 ar
  14    8   39 1
  15    9   10 ar
  16    9   40 1
  17   10   11 ar
  18   10   12 1
  19   11   16 1
  20   12   13 1
  21   13   14 1
  22   13   15 1
  23   13   41 1
  24   14   42 1
  25   14   43 1
  26   14   44 1
  27   15   45 1
  28   15   46 1
  29   15   47 1
  30   16   17 3
  31   18   19 ar
  32   18   23 ar
  33   19   20 ar
  34   19   24 1
  35   20   21 ar
  36   20   26 1
  37   21   22 ar
  38   21   48 1
  39   22   23 ar
  40   22   49 1
  41   23   50 1
  42   24   25 1
  43   24   51 1
  44   24   52 1
  45   25   26 1
  46   25   53 1
  47   25   54 1
  48   26   27 1
  49   26   55 1
  50   27   28 am
  51   27   56 1
  52   28   29 am
  53   28   30 2
  54   29   31 1
  55   29   35 1
  56   31   32 1
  57   31   57 1
  58   31   58 1
  59   32   33 1
  60   32   59 1
  61   32   60 1
  62   33   34 1
  63   33   61 1
  64   33   62 1
  65   34   35 1
  66   34   36 1
  67   34   63 1
  68   35   64 1
  69   35   65 1
  70   36   66 1

#	End of record

