#	Name: ASD01810210
#	Creating user name:	WinNT
#	Creation time:	15. 06. 2019 19:24

#	Modifying user name:	WinNT
#	Modification time:	15. 06. 2019 19:24

#	Program:	/corina/corina34_cracker 3.40 0067  02.08.2006

@<TRIPOS>MOLECULE
ASD01810210
  47   50    0    0    0
SMALL
NO_CHARGES


@<TRIPOS>ATOM
   1 C1             0.1038     1.4772     0.3904 C.ar    
   2 C2             0.0850     0.0900     0.3823 C.ar    
   3 C3             1.2535    -0.6295     0.2403 C.ar    
   4 C4             2.4697     0.0388     0.1030 C.ar    
   5 C5             2.4840     1.4435     0.1117 C.ar    
   6 C6             1.2942     2.1571     0.2562 C.ar    
   7 N7             3.6451    -0.6678    -0.0386 N.pl3   
   8 C8             4.8373    -0.0734    -0.1722 C.2     
   9 C9             4.9780     1.2999    -0.1780 C.2     
  10 C10            3.7769     2.1382    -0.0343 C.2     
  11 O11            3.8479     3.3547    -0.0335 O.2     
  12 C12            6.3048     1.9145    -0.3260 C.2     
  13 O13            6.4293     3.2568    -0.3301 O.3     
  14 O14            7.2901     1.2123    -0.4447 O.2     
  15 C15            3.5871    -2.1316    -0.0427 C.3     
  16 C16            3.4445    -2.6248    -1.4595 C.ar    
  17 C17            4.5665    -2.7659    -2.2562 C.ar    
  18 C18            4.4418    -3.2172    -3.5545 C.ar    
  19 C19            3.1827    -3.5308    -4.0625 C.ar    
  20 C20            2.0558    -3.3867    -3.2555 C.ar    
  21 C21            2.1929    -2.9400    -1.9568 C.ar    
  22 C22            3.0423    -4.0158    -5.4576 C.ar    
  23 C23            1.7820    -4.3327    -5.9750 C.ar    
  24 C24            1.7014    -4.7807    -7.2798 C.ar    
  25 C25            2.8654    -4.9009    -8.0294 C.ar    
  26 N26            4.0427    -4.5927    -7.5101 N.ar    
  27 C27            4.1625    -4.1567    -6.2723 C.ar    
  28 O28            2.7937    -5.3404    -9.3108 O.3     
  29 F29            1.2196    -1.9801     0.2347 F       
  30 C30            4.0235    -5.4433   -10.0312 C.3     
  31 H31           -0.8197     2.0266     0.4979 H       
  32 H32           -0.8544    -0.4322     0.4886 H       
  33 H33            1.3062     3.2370     0.2625 H       
  34 H34            5.7184    -0.6889    -0.2787 H       
  35 H35            7.3221     3.6146    -0.4301 H       
  36 H36            4.5030    -2.5328     0.3913 H       
  37 H37            2.7311    -2.4629     0.5452 H       
  38 H38            5.5419    -2.5223    -1.8615 H       
  39 H39            5.3185    -3.3267    -4.1757 H       
  40 H40            1.0776    -3.6282    -3.6441 H       
  41 H41            1.3202    -2.8282    -1.3303 H       
  42 H42            0.8936    -4.2302    -5.3695 H       
  43 H43            0.7448    -5.0349    -7.7119 H       
  44 H44            5.1404    -3.9150    -5.8829 H       
  45 H45            3.8246    -5.8054   -11.0398 H       
  46 H46            4.4967    -4.4628   -10.0839 H       
  47 H47            4.6873    -6.1400    -9.5192 H       
@<TRIPOS>BOND
   1    1    2 ar
   2    1    6 ar
   3    1   31 1
   4    2    3 ar
   5    2   32 1
   6    3    4 ar
   7    3   29 1
   8    4    5 ar
   9    4    7 1
  10    5    6 ar
  11    5   10 1
  12    6   33 1
  13    7    8 1
  14    7   15 1
  15    8    9 2
  16    8   34 1
  17    9   10 1
  18    9   12 1
  19   10   11 2
  20   12   13 1
  21   12   14 2
  22   13   35 1
  23   15   16 1
  24   15   36 1
  25   15   37 1
  26   16   17 ar
  27   16   21 ar
  28   17   18 ar
  29   17   38 1
  30   18   19 ar
  31   18   39 1
  32   19   20 ar
  33   19   22 1
  34   20   21 ar
  35   20   40 1
  36   21   41 1
  37   22   23 ar
  38   22   27 ar
  39   23   24 ar
  40   23   42 1
  41   24   25 ar
  42   24   43 1
  43   25   26 ar
  44   25   28 1
  45   26   27 ar
  46   27   44 1
  47   28   30 1
  48   30   45 1
  49   30   46 1
  50   30   47 1

#	End of record

