#	Name: ASD03731758
#	Creating user name:	WinNT
#	Creation time:	15. 06. 2019 20:46

#	Modifying user name:	WinNT
#	Modification time:	15. 06. 2019 20:46

#	Program:	/corina/corina34_cracker 3.40 0067  02.08.2006

@<TRIPOS>MOLECULE
ASD03731758
  36   37    0    0    0
SMALL
NO_CHARGES


@<TRIPOS>ATOM
   1 C1             0.3753     1.0933     1.9788 C.2     
   2 C2             0.2918    -0.2829     1.4519 C.ar    
   3 C3             1.3748    -0.8361     0.7628 C.ar    
   4 C4             1.2925    -2.1218     0.2723 C.ar    
   5 C5             0.1323    -2.8676     0.4627 C.ar    
   6 C6            -0.9453    -2.3195     1.1469 C.ar    
   7 C7            -0.8676    -1.0376     1.6456 C.ar    
   8 O8             1.3869     1.7472     1.8136 O.2     
   9 N9            -0.6720     1.6271     2.6382 N.am    
  10 S10           -0.5783     3.1712     3.2293 S.o2    
  11 O11           -1.8295     3.3774     3.8707 O.2     
  12 O12            0.6355     3.1906     3.9679 O.2     
  13 C13           -0.4410     4.2141     1.7515 C.3     
  14 O14            0.0538    -4.1332    -0.0217 O.3     
  15 C15           -1.1328    -4.7867     0.0898 C.ar    
  16 C16           -2.0864    -4.6704    -0.9114 C.ar    
  17 C17           -3.2918    -5.3350    -0.7967 C.ar    
  18 C18           -3.5490    -6.1167     0.3170 C.ar    
  19 C19           -2.5987    -6.2334     1.3170 C.ar    
  20 C20           -1.3894    -5.5751     1.2019 C.ar    
  21 C21           -4.3277    -5.2089    -1.8839 C.3     
  22 F22           -4.7286    -6.7659     0.4280 F       
  23 F23            2.3381    -2.6583    -0.3940 F       
  24 H24            2.2744    -0.2572     0.6145 H       
  25 H25           -1.8438    -2.9008     1.2920 H       
  26 H26           -1.7044    -0.6147     2.1818 H       
  27 H27           -1.4806     1.1069     2.7664 H       
  28 H28           -1.3203     4.0716     1.1233 H       
  29 H29           -0.3735     5.2603     2.0501 H       
  30 H30            0.4532     3.9372     1.1932 H       
  31 H31           -1.8864    -4.0602    -1.7798 H       
  32 H32           -2.8008    -6.8431     2.1852 H       
  33 H33           -0.6462    -5.6704     1.9797 H       
  34 H34           -4.1739    -5.9932    -2.6251 H       
  35 H35           -5.3230    -5.3085    -1.4507 H       
  36 H36           -4.2356    -4.2338    -2.3623 H       
@<TRIPOS>BOND
   1    1    2 1
   2    1    8 2
   3    1    9 am
   4    2    3 ar
   5    2    7 ar
   6    3    4 ar
   7    3   24 1
   8    4    5 ar
   9    4   23 1
  10    5    6 ar
  11    5   14 1
  12    6    7 ar
  13    6   25 1
  14    7   26 1
  15    9   10 am
  16    9   27 1
  17   10   11 2
  18   10   12 2
  19   10   13 1
  20   13   28 1
  21   13   29 1
  22   13   30 1
  23   14   15 1
  24   15   16 ar
  25   15   20 ar
  26   16   17 ar
  27   16   31 1
  28   17   18 ar
  29   17   21 1
  30   18   19 ar
  31   18   22 1
  32   19   20 ar
  33   19   32 1
  34   20   33 1
  35   21   34 1
  36   21   35 1
  37   21   36 1

#	End of record

