#	Name: ASD09720052
#	Creating user name:	WinNT
#	Creation time:	15. 06. 2019 21:22

#	Modifying user name:	WinNT
#	Modification time:	15. 06. 2019 21:22

#	Program:	/corina/corina34_cracker 3.40 0067  02.08.2006

@<TRIPOS>MOLECULE
ASD09720052
  42   43    0    0    0
SMALL
NO_CHARGES


@<TRIPOS>ATOM
   1 C1            -0.0332     1.4719    -0.0115 C.ar    
   2 C2             0.0021    -0.0041     0.0020 C.2     
   3 N3            -0.9004    -0.6666     0.6495 N.2     
   4 C4             1.0897    -0.7386    -0.7387 C.3     
   5 O5            -1.8436     0.0202     1.4519 O.3     
   6 S6             0.8607    -2.5262    -0.5325 S.3     
   7 C7             2.2015    -3.2062    -1.4514 C.ar    
   8 C8             2.3645    -4.5841    -1.5296 C.ar    
   9 C9             3.4164    -5.1134    -2.2507 C.ar    
  10 C10            4.3075    -4.2741    -2.8942 C.ar    
  11 C11            4.1487    -2.9023    -2.8183 C.ar    
  12 C12            3.0953    -2.3660    -2.1045 C.ar    
  13 C13            1.1560     2.2012    -0.0606 C.ar    
  14 C14            1.1157     3.5803    -0.0735 C.ar    
  15 C15           -0.0995     4.2403    -0.0379 C.ar    
  16 C16           -1.2822     3.5235     0.0109 C.ar    
  17 C17           -1.2565     2.1444     0.0189 C.ar    
  18 H18           -2.2275     4.0450     0.0389 H       
  19 C19            2.3985     4.3694    -0.1260 C.3     
  20 C20            3.1672     4.0091    -1.3989 C.3     
  21 C21            2.0773     5.8653    -0.1304 C.3     
  22 C22            3.2535     4.0350     1.0980 C.3     
  23 H23            1.0423    -0.4860    -1.7980 H       
  24 H24            2.0613    -0.4483    -0.3391 H       
  25 H25           -2.4776    -0.5589     1.8965 H       
  26 H26            1.6694    -5.2402    -1.0267 H       
  27 H27            3.5437    -6.1842    -2.3118 H       
  28 H28            5.1296    -4.6909    -3.4572 H       
  29 H29            4.8467    -2.2499    -3.3218 H       
  30 H30            2.9719    -1.2947    -2.0456 H       
  31 H31            2.1054     1.6872    -0.0881 H       
  32 H32           -0.1253     5.3200    -0.0478 H       
  33 H33           -2.1803     1.5861     0.0569 H       
  34 H34            2.5581     4.2474    -2.2709 H       
  35 H35            4.0951     4.5799    -1.4369 H       
  36 H36            3.3960     2.9434    -1.3958 H       
  37 H37            1.5297     6.1220     0.7765 H       
  38 H38            3.0052     6.4361    -0.1683 H       
  39 H39            1.4682     6.1036    -1.0023 H       
  40 H40            3.4823     2.9693     1.1011 H       
  41 H41            4.1813     4.6057     1.0600 H       
  42 H42            2.7059     4.2916     2.0048 H       
@<TRIPOS>BOND
   1    1    2 1
   2    1   13 ar
   3    1   17 ar
   4    2    3 2
   5    2    4 1
   6    3    5 1
   7    4    6 1
   8    4   23 1
   9    4   24 1
  10    5   25 1
  11    6    7 1
  12    7    8 ar
  13    7   12 ar
  14    8    9 ar
  15    8   26 1
  16    9   10 ar
  17    9   27 1
  18   10   11 ar
  19   10   28 1
  20   11   12 ar
  21   11   29 1
  22   12   30 1
  23   13   14 ar
  24   13   31 1
  25   14   15 ar
  26   14   19 1
  27   15   16 ar
  28   15   32 1
  29   16   17 ar
  30   16   18 1
  31   17   33 1
  32   19   20 1
  33   19   21 1
  34   19   22 1
  35   20   34 1
  36   20   35 1
  37   20   36 1
  38   21   37 1
  39   21   38 1
  40   21   39 1
  41   22   40 1
  42   22   41 1
  43   22   42 1

#	End of record

