#	Name: ASD03430976
#	Creating user name:	WinNT
#	Creation time:	15. 06. 2019 20:41

#	Modifying user name:	WinNT
#	Modification time:	15. 06. 2019 20:41

#	Program:	/corina/corina34_cracker 3.40 0067  02.08.2006

@<TRIPOS>MOLECULE
ASD03430976
  49   54    0    0    0
SMALL
NO_CHARGES


@<TRIPOS>ATOM
   1 C1             0.0021    -0.0041     0.0020 C.1     
   2 C2            -0.0173     1.4278     0.0099 C.ar    
   3 C3             1.1806     2.1456     0.0023 C.ar    
   4 C4             1.1545     3.5246     0.0100 C.ar    
   5 C5            -0.0549     4.1969     0.0252 C.ar    
   6 C6            -1.2453     3.4921     0.0333 C.ar    
   7 C7            -1.2340     2.1125     0.0194 C.ar    
   8 N8             0.0175    -1.1399    -0.0042 N.1     
   9 C9             2.4462     4.3009     0.0023 C.3     
  10 O10           -1.0945     4.5850    -5.9959 O.3     
  11 C11           -1.9869     5.1503    -6.9624 C.3     
  12 C12           -1.1931     5.4218    -8.2475 C.3     
  13 O13           -0.1334     6.3327    -7.9368 O.3     
  14 C14            0.5963     6.0655    -6.8187 C.ar    
  15 C15            0.1130     5.1965    -5.8473 C.ar    
  16 C16            1.8325     6.6676    -6.6551 C.ar    
  17 C17            2.5951     6.4165    -5.5190 C.ar    
  18 C18            2.0928     5.5590    -4.5448 C.ar    
  19 C19            0.8666     4.9503    -4.7100 C.ar    
  20 O20            3.8302     6.8830    -5.1770 O.3     
  21 C21            3.1134     5.5204    -3.4391 C.3     
  22 C22            4.0272     6.7112    -3.7604 C.3     
  23 N23            2.8520     4.5599    -1.3813 N.am    
  24 C24            2.4849     5.6516    -2.0813 C.2     
  25 C25            3.8704     4.2264    -3.4034 C.ar    
  26 C26            4.6445     3.5508    -4.3202 C.ar    
  27 C27            5.2265     2.3428    -3.9798 C.ar    
  28 C28            5.0296     1.8152    -2.7166 C.ar    
  29 C29            4.2546     2.4876    -1.7949 C.ar    
  30 C30            3.6650     3.7045    -2.1287 C.ar    
  31 O31            1.7848     6.5619    -1.6910 O.2     
  32 H32            2.1252     1.6221    -0.0092 H       
  33 H33           -0.0695     5.2768     0.0312 H       
  34 H34           -2.1857     4.0231     0.0458 H       
  35 H35           -2.1640     1.5636     0.0208 H       
  36 H36            2.3039     5.2481     0.5226 H       
  37 H37            3.2207     3.7225     0.5060 H       
  38 H38           -2.7952     4.4493    -7.1708 H       
  39 H39           -2.3988     6.0843    -6.5804 H       
  40 H40           -0.7763     4.4885    -8.6261 H       
  41 H41           -1.8488     5.8632    -8.9981 H       
  42 H42            2.2074     7.3371    -7.4151 H       
  43 H43            0.4919     4.2798    -3.9507 H       
  44 H44            5.0674     6.4711    -3.5407 H       
  45 H45            3.7105     7.6002    -3.2150 H       
  46 H46            4.7972     3.9643    -5.3062 H       
  47 H47            5.8331     1.8126    -4.6991 H       
  48 H48            5.4843     0.8723    -2.4509 H       
  49 H49            4.1050     2.0694    -0.8104 H       
@<TRIPOS>BOND
   1    1    2 1
   2    1    8 3
   3    2    3 ar
   4    2    7 ar
   5    3    4 ar
   6    3   32 1
   7    4    5 ar
   8    4    9 1
   9    5    6 ar
  10    5   33 1
  11    6    7 ar
  12    6   34 1
  13    7   35 1
  14    9   23 1
  15    9   36 1
  16    9   37 1
  17   10   11 1
  18   10   15 1
  19   11   12 1
  20   11   38 1
  21   11   39 1
  22   12   13 1
  23   12   40 1
  24   12   41 1
  25   13   14 1
  26   14   15 ar
  27   14   16 ar
  28   15   19 ar
  29   16   17 ar
  30   16   42 1
  31   17   18 ar
  32   17   20 1
  33   18   19 ar
  34   18   21 1
  35   19   43 1
  36   20   22 1
  37   21   22 1
  38   21   24 1
  39   21   25 1
  40   22   44 1
  41   22   45 1
  42   23   24 am
  43   23   30 1
  44   24   31 2
  45   25   26 ar
  46   25   30 ar
  47   26   27 ar
  48   26   46 1
  49   27   28 ar
  50   27   47 1
  51   28   29 ar
  52   28   48 1
  53   29   30 ar
  54   29   49 1

#	End of record

