#	Name: ASD01680069
#	Creating user name:	WinNT
#	Creation time:	15. 06. 2019 19:22

#	Modifying user name:	WinNT
#	Modification time:	15. 06. 2019 19:22

#	Program:	/corina/corina34_cracker 3.40 0067  02.08.2006

@<TRIPOS>MOLECULE
ASD01680069
  85   88    0    0    0
SMALL
NO_CHARGES


@<TRIPOS>ATOM
   1 C1            -0.5039     1.1778     0.1171 C.2     
   2 C2            -0.3837    -0.3150     0.2849 C.3     
   3 C3            -1.1892    -1.0178    -0.8096 C.3     
   4 O4             0.4852     1.8464    -0.0691 O.2     
   5 O5            -1.7103     1.7640     0.1689 O.3     
   6 N6             1.0244    -0.7061     0.1824 N.am    
   7 S7             1.9385    -0.8760     1.5528 S.o2    
   8 O8             3.2290    -1.2900     1.1256 O.2     
   9 O9             1.7150     0.2915     2.3315 O.2     
  10 C10            1.2619    -2.2213     2.4676 C.ar    
  11 C11            0.4013    -1.9771     3.5215 C.ar    
  12 C12           -0.1295    -3.0325     4.2392 C.ar    
  13 C13            0.1999    -4.3322     3.9028 C.ar    
  14 C14            1.0598    -4.5765     2.8483 C.ar    
  15 C15            1.5872    -3.5212     2.1279 C.ar    
  16 C16            2.5206    -3.7876     0.9751 C.3     
  17 C17           -0.3780    -5.4828     4.6859 C.3     
  18 C18            0.0422    -0.5602     3.8882 C.3     
  19 N19           -0.9768    -2.4645    -0.7196 N.am    
  20 C20           -1.5907    -3.2911    -1.5893 C.2     
  21 O21           -2.3190    -2.8373    -2.4463 O.2     
  22 C22           -1.3722    -4.7793    -1.4967 C.3     
  23 O23           -2.1245    -5.4357    -2.5190 O.3     
  24 N24           -4.2761    -7.5660    -2.5133 N.am    
  25 C25           -3.0825    -7.5224    -1.6492 C.3     
  26 C26           -1.9867    -6.8580    -2.5196 C.3     
  27 C27           -2.3020    -7.4468    -3.9201 C.3     
  28 C28           -3.8425    -7.5381    -3.9179 C.3     
  29 C29           -4.2888    -8.8189    -4.6258 C.3     
  30 N30           -3.8133    -9.9832    -3.8744 N.pl3   
  31 C31           -4.1819   -11.2637    -4.2702 C.ar    
  32 C32           -5.0028   -11.4326    -5.3808 C.ar    
  33 C33           -5.3618   -12.7122    -5.7634 C.ar    
  34 C34           -4.8860   -13.7844    -5.0198 C.ar    
  35 C35           -4.0752   -13.5439    -3.9291 C.ar    
  36 N36           -3.7443   -12.3121    -3.5902 N.ar    
  37 S37           -5.8451    -7.6411    -1.9889 S.o2    
  38 O38           -6.5184    -8.3757    -3.0020 O.2     
  39 O39           -5.7477    -8.1422    -0.6627 O.2     
  40 C40           -6.4018    -5.9147    -1.9779 C.3     
  41 C41           -7.8338    -5.8517    -1.5124 C.ar    
  42 C42           -8.1176    -5.7097    -0.1670 C.ar    
  43 C43           -9.4310    -5.6520     0.2600 C.ar    
  44 C44          -10.4607    -5.7357    -0.6585 C.ar    
  45 C45          -10.1769    -5.8767    -2.0040 C.ar    
  46 C46           -8.8634    -5.9301    -2.4314 C.ar    
  47 H47           -0.7705    -0.6030     1.2624 H       
  48 H48           -2.2487    -0.7973    -0.6793 H       
  49 H49           -0.8617    -0.6625    -1.7867 H       
  50 H50           -1.7371     2.7240     0.0558 H       
  51 H51            1.4213    -0.8655    -0.6882 H       
  52 H52           -0.8013    -2.8417     5.0630 H       
  53 H53            1.3175    -5.5919     2.5857 H       
  54 H54            3.5524    -3.7155     1.3189 H       
  55 H55            2.3373    -4.7880     0.5830 H       
  56 H56            2.3471    -3.0521     0.1896 H       
  57 H57           -1.3175    -5.7964     4.2309 H       
  58 H58            0.3248    -6.3160     4.6794 H       
  59 H59           -0.5591    -5.1682     5.7136 H       
  60 H60           -0.6347    -0.1512     3.1381 H       
  61 H61           -0.4463    -0.5498     4.8626 H       
  62 H62            0.9477     0.0451     3.9292 H       
  63 H63           -0.3942    -2.8274    -0.0342 H       
  64 H64           -0.3127    -4.9997    -1.6270 H       
  65 H65           -1.6997    -5.1346    -0.5197 H       
  66 H66           -3.2785    -6.9208    -0.7616 H       
  67 H67           -2.7822    -8.5312    -1.3660 H       
  68 H68           -0.9914    -7.1522    -2.1865 H       
  69 H69           -1.9566    -6.7762    -4.7070 H       
  70 H70           -1.8572    -8.4356    -4.0318 H       
  71 H71           -4.2662    -6.6680    -4.4194 H       
  72 H72           -5.3771    -8.8426    -4.6820 H       
  73 H73           -3.8724    -8.8415    -5.6328 H       
  74 H74           -3.2411    -9.8605    -3.1008 H       
  75 H75           -5.3551   -10.5761    -5.9364 H       
  76 H76           -5.9980   -12.8741    -6.6210 H       
  77 H77           -5.1482   -14.7961    -5.2920 H       
  78 H78           -3.7031   -14.3747    -3.3480 H       
  79 H79           -5.7740    -5.3348    -1.3014 H       
  80 H80           -6.3285    -5.5029    -2.9844 H       
  81 H81           -7.3131    -5.6443     0.5507 H       
  82 H82           -9.6528    -5.5418     1.3112 H       
  83 H83          -11.4869    -5.6912    -0.3248 H       
  84 H84          -10.9814    -5.9424    -2.7216 H       
  85 H85           -8.6416    -6.0366    -3.4830 H       
@<TRIPOS>BOND
   1    1    2 1
   2    1    4 2
   3    1    5 1
   4    2    3 1
   5    2    6 1
   6    2   47 1
   7    3   19 1
   8    3   48 1
   9    3   49 1
  10    5   50 1
  11    6    7 am
  12    6   51 1
  13    7    8 2
  14    7    9 2
  15    7   10 1
  16   10   11 ar
  17   10   15 ar
  18   11   12 ar
  19   11   18 1
  20   12   13 ar
  21   12   52 1
  22   13   14 ar
  23   13   17 1
  24   14   15 ar
  25   14   53 1
  26   15   16 1
  27   16   54 1
  28   16   55 1
  29   16   56 1
  30   17   57 1
  31   17   58 1
  32   17   59 1
  33   18   60 1
  34   18   61 1
  35   18   62 1
  36   19   20 am
  37   19   63 1
  38   20   21 2
  39   20   22 1
  40   22   23 1
  41   22   64 1
  42   22   65 1
  43   23   26 1
  44   24   25 1
  45   24   28 1
  46   24   37 am
  47   25   26 1
  48   25   66 1
  49   25   67 1
  50   26   27 1
  51   26   68 1
  52   27   28 1
  53   27   69 1
  54   27   70 1
  55   28   29 1
  56   28   71 1
  57   29   30 1
  58   29   72 1
  59   29   73 1
  60   30   31 1
  61   30   74 1
  62   31   32 ar
  63   31   36 ar
  64   32   33 ar
  65   32   75 1
  66   33   34 ar
  67   33   76 1
  68   34   35 ar
  69   34   77 1
  70   35   36 ar
  71   35   78 1
  72   37   38 2
  73   37   39 2
  74   37   40 1
  75   40   41 1
  76   40   79 1
  77   40   80 1
  78   41   42 ar
  79   41   46 ar
  80   42   43 ar
  81   42   81 1
  82   43   44 ar
  83   43   82 1
  84   44   45 ar
  85   44   83 1
  86   45   46 ar
  87   45   84 1
  88   46   85 1

#	End of record

