#	Name: ASD01120038
#	Creating user name:	WinNT
#	Creation time:	15. 06. 2019 18:58

#	Modifying user name:	WinNT
#	Modification time:	15. 06. 2019 18:58

#	Program:	/corina/corina34_cracker 3.40 0067  02.08.2006

@<TRIPOS>MOLECULE
ASD01120038
  55   58    0    0    0
SMALL
NO_CHARGES


@<TRIPOS>ATOM
   1 C1            -0.0157     1.4014    -0.0340 C.ar    
   2 C2             0.0044    -0.0001    -0.0549 C.ar    
   3 C3            -1.1694    -0.7207    -0.0460 C.ar    
   4 C4            -2.3944    -0.0434    -0.0156 C.ar    
   5 C5            -2.4068     1.3734     0.0054 C.ar    
   6 C6            -1.1995     2.0821     0.0010 C.ar    
   7 N7            -3.5659    -0.6987    -0.0062 N.ar    
   8 C8            -4.6979    -0.0366     0.0219 C.ar    
   9 N9            -4.7583     1.2854     0.0419 N.ar    
  10 C10           -3.6603     2.0297     0.0355 C.ar    
  11 N11           -3.7382     3.4079     0.0561 N.pl3   
  12 C12           -4.9822     4.0391    -0.0355 C.ar    
  13 O13            1.1564     2.0909    -0.0429 O.3     
  14 O14            1.1945    -0.6546    -0.0848 O.3     
  15 C15           -5.2113     5.2234     0.6489 C.ar    
  16 C16           -6.4518     5.8485     0.5541 C.ar    
  17 C17           -7.4562     5.2810    -0.2277 C.ar    
  18 C18           -7.2205     4.1014    -0.9058 C.ar    
  19 C19           -5.9882     3.4830    -0.8172 C.ar    
  20 C20           -6.7039     7.1157     1.2842 C.ar    
  21 C21            1.0702     3.5171    -0.0205 C.3     
  22 C22            2.4792     4.1134    -0.0347 C.3     
  23 C23            1.1491    -2.0828    -0.1050 C.3     
  24 C24            2.5744    -2.6380    -0.1374 C.3     
  25 C25           -5.7005     7.6834     2.0663 C.ar    
  26 C26           -5.9404     8.8625     2.7429 C.ar    
  27 C27           -7.1740     9.4801     2.6454 C.ar    
  28 C28           -8.1739     8.9207     1.8701 C.ar    
  29 C29           -7.9433     7.7450     1.1853 C.ar    
  30 C30           -9.5157     9.5992     1.7691 C.3     
  31 H31           -1.1450    -1.8003    -0.0626 H       
  32 H32           -1.2042     3.1620     0.0169 H       
  33 H33           -5.6222    -0.5954     0.0287 H       
  34 H34           -2.9298     3.9383     0.1342 H       
  35 H35           -4.4299     5.6592     1.2538 H       
  36 H36           -8.4193     5.7638    -0.3030 H       
  37 H37           -8.0005     3.6631    -1.5108 H       
  38 H38           -5.8087     2.5607    -1.3497 H       
  39 H39            0.5210     3.8617    -0.8967 H       
  40 H40            0.5500     3.8355     0.8828 H       
  41 H41            2.4135     5.2013    -0.0176 H       
  42 H42            3.0284     3.7688     0.8415 H       
  43 H43            2.9994     3.7950    -0.9380 H       
  44 H44            0.6391    -2.4427     0.7886 H       
  45 H45            0.6089    -2.4166    -0.9909 H       
  46 H46            2.5398    -3.7273    -0.1528 H       
  47 H47            3.0843    -2.2780    -1.0310 H       
  48 H48            3.1146    -2.3041     0.7485 H       
  49 H49           -4.7370     7.2018     2.1435 H       
  50 H50           -5.1634     9.3033     3.3498 H       
  51 H51           -7.3574    10.4023     3.1767 H       
  52 H52           -8.7246     7.3092     0.5803 H       
  53 H53           -9.5078    10.2971     0.9318 H       
  54 H54          -10.2909     8.8496     1.6100 H       
  55 H55           -9.7189    10.1417     2.6924 H       
@<TRIPOS>BOND
   1    1    2 ar
   2    1   13 1
   3    1    6 ar
   4    2    3 ar
   5    2   14 1
   6    3    4 ar
   7    3   31 1
   8    4    5 ar
   9    4    7 ar
  10    5    6 ar
  11    5   10 ar
  12    6   32 1
  13    7    8 ar
  14    8    9 ar
  15    8   33 1
  16    9   10 ar
  17   10   11 1
  18   11   12 1
  19   11   34 1
  20   12   15 ar
  21   12   19 ar
  22   13   21 1
  23   14   23 1
  24   15   16 ar
  25   15   35 1
  26   16   17 ar
  27   16   20 1
  28   17   18 ar
  29   17   36 1
  30   18   19 ar
  31   18   37 1
  32   19   38 1
  33   20   25 ar
  34   20   29 ar
  35   21   22 1
  36   21   39 1
  37   21   40 1
  38   22   41 1
  39   22   42 1
  40   22   43 1
  41   23   24 1
  42   23   44 1
  43   23   45 1
  44   24   46 1
  45   24   47 1
  46   24   48 1
  47   25   26 ar
  48   25   49 1
  49   26   27 ar
  50   26   50 1
  51   27   28 ar
  52   27   51 1
  53   28   29 ar
  54   28   30 1
  55   29   52 1
  56   30   53 1
  57   30   54 1
  58   30   55 1

#	End of record

