#	Name: ASD07930590
#	Creating user name:	WinNT
#	Creation time:	15. 06. 2019 21:12

#	Modifying user name:	WinNT
#	Modification time:	15. 06. 2019 21:12

#	Program:	/corina/corina34_cracker 3.40 0067  02.08.2006

@<TRIPOS>MOLECULE
ASD07930590
  45   47    0    0    0
SMALL
NO_CHARGES


@<TRIPOS>ATOM
   1 C1            -0.0338     1.4578     0.0423 C.3     
   2 N2             0.7956    -0.4138    -2.1302 N.2     
   3 N3            -0.8902    -1.7838    -1.2684 N.pl3   
   4 C4            -0.9149    -2.8273    -0.2382 C.3     
   5 C5            -1.2299    -2.1886     1.1216 C.3     
   6 S6             0.0064    -0.8916     1.4435 S.o2    
   7 N7            -0.0137    -0.0070     0.0315 N.am    
   8 C8            -0.0110    -0.7263    -1.1552 C.2     
   9 C9             0.4500    -3.5157    -0.1754 C.3     
  10 C10           -1.9765    -3.8424    -0.5754 C.ar    
  11 C11           -2.8068    -3.6381    -1.6597 C.ar    
  12 C12           -3.7847    -4.5742    -1.9703 C.ar    
  13 C13           -3.9253    -5.7137    -1.1894 C.ar    
  14 C14           -3.0926    -5.9141    -0.1057 C.ar    
  15 C15           -2.1150    -4.9822     0.1991 C.ar    
  16 O16           -0.4573     0.0115     2.4377 O.2     
  17 O17            1.3142    -1.4444     1.5004 O.2     
  18 F18           -1.3013    -5.1803     1.2592 F       
  19 N19           -4.6276    -4.3690    -3.0686 N.am    
  20 C20           -5.0472    -5.4193    -3.8016 C.2     
  21 O21           -4.6175    -6.5327    -3.5699 O.2     
  22 C22           -6.0295    -5.2175    -4.8867 C.ar    
  23 C23           -6.4734    -6.3009    -5.6556 C.ar    
  24 N24           -7.4103    -3.7648    -6.1252 N.ar    
  25 C25           -6.5347    -3.9452    -5.1587 C.ar    
  26 C26           -7.3937    -6.0593    -6.6591 C.ar    
  27 C27           -7.8429    -4.7661    -6.8699 C.ar    
  28 Cl28          -8.9982    -4.4577    -8.1284 Cl      
  29 H29            0.9888     1.8352     0.0393 H       
  30 H30           -0.5576     1.8206    -0.8420 H       
  31 H31           -0.5475     1.8075     0.9379 H       
  32 H32            1.4075     0.3326    -2.0331 H       
  33 H33           -1.4882    -1.8389    -2.0302 H       
  34 H34           -2.2269    -1.7485     1.0987 H       
  35 H35           -1.1800    -2.9461     1.9038 H       
  36 H36            1.2166    -2.7809     0.0706 H       
  37 H37            0.4310    -4.2911     0.5905 H       
  38 H38            0.6748    -3.9656    -1.1424 H       
  39 H39           -2.6961    -2.7510    -2.2656 H       
  40 H40           -4.6853    -6.4426    -1.4290 H       
  41 H41           -3.2016    -6.8002     0.5020 H       
  42 H42           -4.9098    -3.4708    -3.3022 H       
  43 H43           -6.1060    -7.2993    -5.4697 H       
  44 H44           -6.2047    -3.1013    -4.5710 H       
  45 H45           -7.7581    -6.8703    -7.2722 H       
@<TRIPOS>BOND
   1    1    7 1
   2    1   29 1
   3    1   30 1
   4    1   31 1
   5    2    8 2
   6    2   32 1
   7    3    4 1
   8    3    8 1
   9    3   33 1
  10    4    5 1
  11    4    9 1
  12    4   10 1
  13    5    6 1
  14    5   34 1
  15    5   35 1
  16    6    7 am
  17    6   16 2
  18    6   17 2
  19    7    8 1
  20    9   36 1
  21    9   37 1
  22    9   38 1
  23   10   11 ar
  24   10   15 ar
  25   11   12 ar
  26   11   39 1
  27   12   13 ar
  28   12   19 1
  29   13   14 ar
  30   13   40 1
  31   14   15 ar
  32   14   41 1
  33   15   18 1
  34   19   20 am
  35   19   42 1
  36   20   21 2
  37   20   22 1
  38   22   23 ar
  39   22   25 ar
  40   23   26 ar
  41   23   43 1
  42   24   25 ar
  43   24   27 ar
  44   25   44 1
  45   26   27 ar
  46   26   45 1
  47   27   28 1

#	End of record

