#	Name: ASD01209116
#	Creating user name:	WinNT
#	Creation time:	15. 06. 2019 19:11

#	Modifying user name:	WinNT
#	Modification time:	15. 06. 2019 19:11

#	Program:	/corina/corina34_cracker 3.40 0067  02.08.2006

@<TRIPOS>MOLECULE
ASD01209116
  81   83    0    0    0
SMALL
NO_CHARGES


@<TRIPOS>ATOM
   1 C1             0.2406     3.7399     1.9832 C.ar    
   2 C2             0.4376     2.3874     1.7463 C.ar    
   3 C3            -0.5272     1.6484     1.0768 C.ar    
   4 C4            -1.6918     2.2587     0.6421 C.ar    
   5 C5            -1.8944     3.6192     0.8787 C.ar    
   6 C6            -0.9239     4.3573     1.5569 C.ar    
   7 O7             1.1888     4.4591     2.6394 O.3     
   8 C8             0.9672     5.8654     2.7620 C.3     
   9 C9             2.3086     6.5796     2.9397 C.3     
  10 O10            2.9002     6.1808     4.1779 O.3     
  11 O11           -0.3289     0.3236     0.8469 O.3     
  12 C12            0.9459    -0.2133     1.2057 C.3     
  13 C13            1.2254    -1.4648     0.3711 C.3     
  14 C14            1.3483    -1.0826    -1.0815 C.ar    
  15 C15            2.5813    -0.7403    -1.6042 C.ar    
  16 C16           -3.1359     4.2750     0.4166 C.2     
  17 N17           -3.3296     5.5888     0.6462 N.am    
  18 O18           -3.9819     3.6294    -0.1702 O.2     
  19 C19           -4.4896     6.2016     0.2144 C.2     
  20 S20           -5.8034     5.3926    -0.6481 S.3     
  21 C21           -6.8524     6.8738    -0.8082 C.3     
  22 C22           -6.0233     7.9688    -0.1187 C.3     
  23 N23           -4.7750     7.4410     0.3850 N.2     
  24 C24           -5.7323     9.0852    -1.1236 C.3     
  25 P25           -4.8781    10.4561    -0.2785 P.3     
  26 O26           -5.6848    10.9005     0.8801 O.2     
  27 C27            0.0794     6.1377     3.9781 C.3     
  28 C28            0.2288    -1.0800    -1.8926 C.ar    
  29 C29            0.3415    -0.7295    -3.2250 C.ar    
  30 C30            1.5736    -0.3812    -3.7462 C.ar    
  31 C31            2.6940    -0.3897    -2.9366 C.ar    
  32 C32            0.9449    -0.5806     2.6910 C.3     
  33 O33           -3.4355     9.9560     0.2322 O.3     
  34 C34           -2.5828    10.7526     1.0571 C.3     
  35 C35           -2.4375    10.0911     2.4291 C.3     
  36 C36           -1.2060    10.8734     0.4008 C.3     
  37 O37           -4.6889    11.6835    -1.3031 O.3     
  38 C38           -4.1323    12.9415    -0.9162 C.3     
  39 C39           -2.9671    13.2906    -1.8444 C.3     
  40 C40           -5.2063    14.0266    -1.0156 C.3     
  41 H41            1.3449     1.9083     2.0836 H       
  42 H42           -2.4419     1.6829     0.1205 H       
  43 H43           -1.0769     5.4102     1.7424 H       
  44 H44            0.4749     6.2355     1.8627 H       
  45 H45            2.9731     6.3144     2.1174 H       
  46 H46            2.1484     7.6578     2.9442 H       
  47 H47            3.7552     6.5955     4.3568 H       
  48 H48            1.7199     0.5304     1.0159 H       
  49 H49            2.1553    -1.9245     0.7057 H       
  50 H50            0.4058    -2.1730     0.4924 H       
  51 H51            3.4566    -0.7463    -0.9716 H       
  52 H52           -2.6543     6.1041     1.1146 H       
  53 H53           -7.0152     7.1182    -1.8579 H       
  54 H54           -7.8026     6.7296    -0.2939 H       
  55 H55           -6.5953     8.3796     0.7133 H       
  56 H56           -5.0985     8.6993    -1.9220 H       
  57 H57           -6.6696     9.4468    -1.5465 H       
  58 H58            0.5717     5.7677     4.8774 H       
  59 H59           -0.0897     7.2104     4.0716 H       
  60 H60           -0.8762     5.6289     3.8515 H       
  61 H61           -0.7337    -1.3521    -1.4853 H       
  62 H62           -0.5329    -0.7281    -3.8588 H       
  63 H63            1.6617    -0.1077    -4.7873 H       
  64 H64            3.6566    -0.1177    -3.3439 H       
  65 H65            0.7457     0.3109     3.2856 H       
  66 H66            0.1709    -1.3243     2.8808 H       
  67 H67            1.9172    -0.9902     2.9646 H       
  68 H68           -3.0168    11.7453     1.1765 H       
  69 H69           -2.0036     9.0984     2.3097 H       
  70 H70           -1.7871    10.6987     3.0583 H       
  71 H71           -3.4184    10.0050     2.8966 H       
  72 H72           -1.2972    11.4220    -0.5366 H       
  73 H73           -0.5303    11.4065     1.0696 H       
  74 H74           -0.8097     9.8777     0.2020 H       
  75 H75           -3.7726    12.8792     0.1108 H       
  76 H76           -2.4849    14.2034    -1.4946 H       
  77 H77           -2.2445    12.4746    -1.8432 H       
  78 H78           -3.3419    13.4426    -2.8566 H       
  79 H79           -6.0363    13.7779    -0.3543 H       
  80 H80           -4.7816    14.9862    -0.7205 H       
  81 H81           -5.5660    14.0889    -2.0426 H       
@<TRIPOS>BOND
   1    1    2 ar
   2    1    7 1
   3    1    6 ar
   4    2    3 ar
   5    2   41 1
   6    3    4 ar
   7    3   11 1
   8    4    5 ar
   9    4   42 1
  10    5    6 ar
  11    5   16 1
  12    6   43 1
  13    7    8 1
  14    8    9 1
  15    8   27 1
  16    8   44 1
  17    9   10 1
  18    9   45 1
  19    9   46 1
  20   10   47 1
  21   11   12 1
  22   12   13 1
  23   12   32 1
  24   12   48 1
  25   13   14 1
  26   13   49 1
  27   13   50 1
  28   14   15 ar
  29   14   28 ar
  30   15   31 ar
  31   15   51 1
  32   16   17 am
  33   16   18 2
  34   17   19 1
  35   17   52 1
  36   19   20 1
  37   19   23 2
  38   20   21 1
  39   21   22 1
  40   21   53 1
  41   21   54 1
  42   22   23 1
  43   22   24 1
  44   22   55 1
  45   24   25 1
  46   24   56 1
  47   24   57 1
  48   25   26 2
  49   25   33 1
  50   25   37 1
  51   27   58 1
  52   27   59 1
  53   27   60 1
  54   28   29 ar
  55   28   61 1
  56   29   30 ar
  57   29   62 1
  58   30   31 ar
  59   30   63 1
  60   31   64 1
  61   32   65 1
  62   32   66 1
  63   32   67 1
  64   33   34 1
  65   34   35 1
  66   34   36 1
  67   34   68 1
  68   35   69 1
  69   35   70 1
  70   35   71 1
  71   36   72 1
  72   36   73 1
  73   36   74 1
  74   37   38 1
  75   38   39 1
  76   38   40 1
  77   38   75 1
  78   39   76 1
  79   39   77 1
  80   39   78 1
  81   40   79 1
  82   40   80 1
  83   40   81 1

#	End of record

