#	Name: ASD01410150
#	Creating user name:	WinNT
#	Creation time:	15. 06. 2019 19:16

#	Modifying user name:	WinNT
#	Modification time:	15. 06. 2019 19:16

#	Program:	/corina/corina34_cracker 3.40 0067  02.08.2006

@<TRIPOS>MOLECULE
ASD01410150
  76   82    0    0    0
SMALL
NO_CHARGES


@<TRIPOS>ATOM
   1 C1             0.0050     1.4329     0.0027 C.ar    
   2 C2             0.0092     0.0624     0.3239 C.ar    
   3 C3            -1.1711    -0.5713     0.6947 C.ar    
   4 C4            -2.3397     0.1319     0.7488 C.ar    
   5 C5            -2.3628     1.4965     0.4320 C.ar    
   6 C6            -1.1903     2.1494     0.0640 C.ar    
   7 N7             1.2790     1.7738    -0.3166 N.2     
   8 C8             2.0534     0.7209    -0.2145 C.2     
   9 N9             1.3137    -0.3625     0.1789 N.pl3   
  10 C10           -3.6342     2.2452     0.4936 C.2     
  11 N11           -4.7701     1.6157     0.8542 N.am    
  12 C12           -6.0313     2.3585     0.9153 C.3     
  13 C13            3.5060     0.7053    -0.4839 C.2     
  14 C14            4.3417    -0.4670    -0.7760 C.2     
  15 C15            5.5878     0.0013    -0.9512 C.2     
  16 O16            5.5817     1.3338    -0.7935 O.3     
  17 C17            4.3476     1.7752    -0.5190 C.2     
  18 C18            1.8147    -1.7206     0.4040 C.3     
  19 C19            1.4174    -2.1848     1.8067 C.3     
  20 C20            1.9407    -3.6032     2.0418 C.3     
  21 C21            1.3365    -4.5486     1.0015 C.3     
  22 C22            1.7338    -4.0844    -0.4012 C.3     
  23 C23            1.2105    -2.6660    -0.6363 C.3     
  24 O24           -3.6562     3.4293     0.2191 O.2     
  25 C25           -6.6680     2.3978    -0.4754 C.3     
  26 C26           -6.9694     1.6771     1.8781 C.2     
  27 C27           -6.6075     0.6252     2.6151 C.2     
  28 S28           -7.9903     0.1427     3.5943 S.3     
  29 C29           -8.9235     1.4048     2.9166 C.2     
  30 N30           -8.2136     2.0760     2.0646 N.2     
  31 C31           -5.7861     3.1859    -1.4094 C.2     
  32 C32           -4.6381     2.6747    -2.1624 C.ar    
  33 C33           -4.1328     3.7665    -2.8904 C.ar    
  34 N34           -4.9253     4.8550    -2.5922 N.pl3   
  35 C35           -5.9073     4.4878    -1.7135 C.2     
  36 C36           -4.0277     1.4229    -2.2676 C.ar    
  37 C37           -2.9290     1.2668    -3.0885 C.ar    
  38 C38           -2.4307     2.3501    -3.8079 C.ar    
  39 C39           -3.0250     3.5884    -3.7125 C.ar    
  40 O40           -2.3305     0.0503    -3.1949 O.3     
  41 N41          -10.2489     1.6752     3.2367 N.am    
  42 C42          -10.8917     0.9141     4.1445 C.2     
  43 C43          -12.3286     1.2073     4.4915 C.3     
  44 O44          -10.3137    -0.0067     4.6821 O.2     
  45 H45           -1.1635    -1.6230     0.9404 H       
  46 H46           -3.2529    -0.3672     1.0374 H       
  47 H47           -1.2071     3.2013    -0.1800 H       
  48 H48           -4.7525     0.6710     1.0732 H       
  49 H49           -5.8378     3.3759     1.2552 H       
  50 H50            4.0194    -1.4960    -0.8374 H       
  51 H51            6.4560    -0.5984    -1.1817 H       
  52 H52            4.0683     2.8043    -0.3477 H       
  53 H53            2.9009    -1.7269     0.3132 H       
  54 H54            1.8479    -1.5113     2.5478 H       
  55 H55            0.3312    -2.1786     1.8975 H       
  56 H56            3.0269    -3.6095     1.9510 H       
  57 H57            1.6577    -3.9339     3.0411 H       
  58 H58            1.7093    -5.5591     1.1690 H       
  59 H59            0.2503    -4.5424     1.0923 H       
  60 H60            2.8200    -4.0907    -0.4920 H       
  61 H61            1.3034    -4.7580    -1.1423 H       
  62 H62            0.1243    -2.6598    -0.5455 H       
  63 H63            1.4935    -2.3353    -1.6356 H       
  64 H64           -6.7800     1.3813    -0.8526 H       
  65 H65           -7.6473     2.8724    -0.4134 H       
  66 H66           -5.6367     0.1521     2.6117 H       
  67 H67           -4.8062     5.7470    -2.9542 H       
  68 H68           -6.6635     5.1492    -1.3170 H       
  69 H69           -4.4128     0.5821    -1.7096 H       
  70 H70           -1.5701     2.2176    -4.4469 H       
  71 H71           -2.6302     4.4217    -4.2748 H       
  72 H72           -2.6904    -0.5047    -3.9003 H       
  73 H73          -10.7111     2.4117     2.8068 H       
  74 H74          -12.6748     2.0635     3.9126 H       
  75 H75          -12.9434     0.3381     4.2578 H       
  76 H76          -12.4068     1.4323     5.5552 H       
@<TRIPOS>BOND
   1    1    2 ar
   2    1    7 1
   3    1    6 ar
   4    2    3 ar
   5    2    9 1
   6    3    4 ar
   7    3   45 1
   8    4    5 ar
   9    4   46 1
  10    5    6 ar
  11    5   10 1
  12    6   47 1
  13    7    8 2
  14    8    9 1
  15    8   13 1
  16    9   18 1
  17   10   11 am
  18   10   24 2
  19   11   12 1
  20   11   48 1
  21   12   25 1
  22   12   26 1
  23   12   49 1
  24   13   14 1
  25   13   17 2
  26   14   15 2
  27   14   50 1
  28   15   16 1
  29   15   51 1
  30   16   17 1
  31   17   52 1
  32   18   19 1
  33   18   23 1
  34   18   53 1
  35   19   20 1
  36   19   54 1
  37   19   55 1
  38   20   21 1
  39   20   56 1
  40   20   57 1
  41   21   22 1
  42   21   58 1
  43   21   59 1
  44   22   23 1
  45   22   60 1
  46   22   61 1
  47   23   62 1
  48   23   63 1
  49   25   31 1
  50   25   64 1
  51   25   65 1
  52   26   27 2
  53   26   30 1
  54   27   28 1
  55   27   66 1
  56   28   29 1
  57   29   30 2
  58   29   41 1
  59   31   32 1
  60   31   35 2
  61   32   33 ar
  62   32   36 ar
  63   33   34 1
  64   33   39 ar
  65   34   35 1
  66   34   67 1
  67   35   68 1
  68   36   37 ar
  69   36   69 1
  70   37   38 ar
  71   37   40 1
  72   38   39 ar
  73   38   70 1
  74   39   71 1
  75   40   72 1
  76   41   42 am
  77   41   73 1
  78   42   43 1
  79   42   44 2
  80   43   74 1
  81   43   75 1
  82   43   76 1

#	End of record

