#	Name: ASD00510024
#	Creating user name:	WinNT
#	Creation time:	15. 06. 2019 18:36

#	Modifying user name:	WinNT
#	Modification time:	15. 06. 2019 18:36

#	Program:	/corina/corina34_cracker 3.40 0067  02.08.2006

@<TRIPOS>MOLECULE
ASD00510024
  41   44    0    0    0
SMALL
NO_CHARGES


@<TRIPOS>ATOM
   1 C1            -0.0169     1.3950     0.0097 C.ar    
   2 C2             0.0021    -0.0041     0.0020 C.ar    
   3 C3             1.1966    -0.6621    -0.0129 C.ar    
   4 C4             2.3990     0.0399    -0.0205 C.ar    
   5 C5             2.4160     1.4018    -0.0129 C.ar    
   6 C6             1.2037     2.1121     0.0019 C.ar    
   7 C7             1.1824     3.5187     0.0101 C.ar    
   8 C8             0.0050     4.1974     0.0259 C.ar    
   9 C9            -1.2232     3.5377     0.0342 C.ar    
  10 C10           -1.2755     2.1410     0.0197 C.ar    
  11 N11           -2.4679     1.4909     0.0218 N.2     
  12 N12           -3.5689     2.1629     0.0306 N.2     
  13 C13           -4.7644     1.5111     0.0328 C.ar    
  14 C14           -7.2429     1.5399     0.0451 C.ar    
  15 C15           -7.2184     0.1347     0.0379 C.ar    
  16 C16           -6.0359    -0.5398     0.0336 C.ar    
  17 C17           -4.8156     0.1212     0.0314 C.ar    
  18 C18           -6.0221     2.2575     0.0427 C.ar    
  19 C19           -6.0421     3.6568     0.0504 C.ar    
  20 C20           -7.2369     4.3136     0.0600 C.ar    
  21 C21           -8.4394     3.6111     0.0627 C.ar    
  22 C22           -8.4560     2.2496     0.0559 C.ar    
  23 O23           -2.3743     4.2556     0.0504 O.3     
  24 S24            3.9214    -0.8469    -0.0397 S.o2    
  25 O25            4.9023     0.0281     0.5002 O.2     
  26 O26            3.6443    -2.1317     0.5005 O.2     
  27 O27            4.2969    -1.0659    -1.4983 O.3     
  28 H28           -0.9240    -0.5598     0.0082 H       
  29 H29            1.2100    -1.7420    -0.0185 H       
  30 H30            3.3563     1.9330    -0.0183 H       
  31 H31            2.1133     4.0661     0.0041 H       
  32 H32            0.0212     5.2773     0.0325 H       
  33 H33           -8.1475    -0.4158     0.0397 H       
  34 H34           -6.0477    -1.6197     0.0281 H       
  35 H35           -3.8980    -0.4485     0.0282 H       
  36 H36           -5.1164     4.2132     0.0491 H       
  37 H37           -7.2509     5.3935     0.0659 H       
  38 H38           -9.3728     4.1544     0.0707 H       
  39 H39           -9.3961     1.7179     0.0578 H       
  40 H40           -2.7170     4.4693    -0.8282 H       
  41 H41            5.1255    -1.5485    -1.6230 H       
@<TRIPOS>BOND
   1    1    2 ar
   2    1    6 ar
   3    1   10 ar
   4    2    3 ar
   5    2   28 1
   6    3    4 ar
   7    3   29 1
   8    4    5 ar
   9    4   24 1
  10    5    6 ar
  11    5   30 1
  12    6    7 ar
  13    7    8 ar
  14    7   31 1
  15    8    9 ar
  16    8   32 1
  17    9   10 ar
  18    9   23 1
  19   10   11 1
  20   11   12 2
  21   12   13 1
  22   13   18 ar
  23   13   17 ar
  24   14   15 ar
  25   14   18 ar
  26   14   22 ar
  27   15   16 ar
  28   15   33 1
  29   16   17 ar
  30   16   34 1
  31   17   35 1
  32   18   19 ar
  33   19   20 ar
  34   19   36 1
  35   20   21 ar
  36   20   37 1
  37   21   22 ar
  38   21   38 1
  39   22   39 1
  40   23   40 1
  41   24   25 2
  42   24   26 2
  43   24   27 1
  44   27   41 1

#	End of record

