#	Name: ASD01190065
#	Creating user name:	WinNT
#	Creation time:	15. 06. 2019 19:07

#	Modifying user name:	WinNT
#	Modification time:	15. 06. 2019 19:07

#	Program:	/corina/corina34_cracker 3.40 0067  02.08.2006

@<TRIPOS>MOLECULE
ASD01190065
  45   48    0    0    0
SMALL
NO_CHARGES


@<TRIPOS>ATOM
   1 N1             0.0274     1.4731    -0.5039 N.pl3   
   2 C2             0.0461     0.0085    -0.5328 C.3     
   3 C3            -0.1048    -0.5316     0.8908 C.3     
   4 N4            -4.0407    -2.0433    -3.8036 N.pl3   
   5 N5            -3.3262    -3.0763    -4.4191 N.2     
   6 C6            -2.0998    -3.0962    -3.9795 C.2     
   7 C7            -1.9566    -2.0182    -3.0062 C.ar    
   8 C8            -0.8982    -1.5549    -2.2167 C.ar    
   9 C9            -1.0930    -0.4918    -1.3832 C.ar    
  10 C10           -2.3319     0.1334    -1.3109 C.ar    
  11 C11           -3.3804    -0.3011    -2.0716 C.ar    
  12 C12           -3.2114    -1.3830    -2.9313 C.ar    
  13 C13           -5.3848    -1.7292    -4.0431 C.ar    
  14 C14           -5.9172    -1.8780    -5.3170 C.ar    
  15 C15           -7.2424    -1.5677    -5.5510 C.ar    
  16 C16           -8.0402    -1.1085    -4.5164 C.ar    
  17 C17           -7.5112    -0.9594    -3.2453 C.ar    
  18 C18           -6.1880    -1.2740    -3.0058 C.ar    
  19 F19           -9.3362    -0.8051    -4.7475 F       
  20 F20           -1.3180    -0.0913     1.4305 F       
  21 F21           -0.0869    -1.9303     0.8632 F       
  22 F22            0.9527    -0.0673     1.6802 F       
  23 C23            1.2047     2.1817    -0.2537 C.ar    
  24 C24            1.1665     3.5614    -0.0947 C.ar    
  25 C25            2.3323     4.2589     0.1525 C.ar    
  26 C26            3.5371     3.5856     0.2420 C.ar    
  27 C27            3.5787     2.2126     0.0844 C.ar    
  28 C28            2.4155     1.5080    -0.1575 C.ar    
  29 N29           -0.1223     4.2828    -0.1908 N.pl3   
  30 O30           -0.1680     5.3805    -0.7165 O.2     
  31 O31           -1.1371     3.7787     0.2558 O.2     
  32 H32           -0.8018     1.9507    -0.6626 H       
  33 H33            0.9914    -0.3346    -0.9533 H       
  34 H34           -1.3270    -3.7876    -4.2814 H       
  35 H35            0.0675    -2.0359    -2.2665 H       
  36 H36           -2.4678     0.9728    -0.6451 H       
  37 H37           -4.3383     0.1933    -2.0057 H       
  38 H38           -5.2953    -2.2357    -6.1242 H       
  39 H39           -7.6568    -1.6830    -6.5417 H       
  40 H40           -8.1349    -0.6008    -2.4398 H       
  41 H41           -5.7770    -1.1621    -2.0133 H       
  42 H42            2.3033     5.3314     0.2758 H       
  43 H43            4.4475     4.1336     0.4351 H       
  44 H44            4.5212     1.6899     0.1545 H       
  45 H45            2.4481     0.4350    -0.2761 H       
@<TRIPOS>BOND
   1    1    2 1
   2    1   23 1
   3    1   32 1
   4    2    3 1
   5    2    9 1
   6    2   33 1
   7    3   20 1
   8    3   21 1
   9    3   22 1
  10    4    5 1
  11    4   12 1
  12    4   13 1
  13    5    6 2
  14    6    7 1
  15    6   34 1
  16    7    8 ar
  17    7   12 ar
  18    8    9 ar
  19    8   35 1
  20    9   10 ar
  21   10   11 ar
  22   10   36 1
  23   11   12 ar
  24   11   37 1
  25   13   14 ar
  26   13   18 ar
  27   14   15 ar
  28   14   38 1
  29   15   16 ar
  30   15   39 1
  31   16   17 ar
  32   16   19 1
  33   17   18 ar
  34   17   40 1
  35   18   41 1
  36   23   24 ar
  37   23   28 ar
  38   24   25 ar
  39   24   29 1
  40   25   26 ar
  41   25   42 1
  42   26   27 ar
  43   26   43 1
  44   27   28 ar
  45   27   44 1
  46   28   45 1
  47   29   30 2
  48   29   31 2

#	End of record

