#	Name: ASD01813148
#	Creating user name:	WinNT
#	Creation time:	15. 06. 2019 19:29

#	Modifying user name:	WinNT
#	Modification time:	15. 06. 2019 19:29

#	Program:	/corina/corina34_cracker 3.40 0067  02.08.2006

@<TRIPOS>MOLECULE
ASD01813148
  58   61    0    0    0
SMALL
NO_CHARGES


@<TRIPOS>ATOM
   1 C1            -0.8259     1.2103    -1.5930 C.2     
   2 C2            -0.7847    -0.1885    -1.5185 C.2     
   3 C3             0.3656    -0.8063    -1.1232 C.2     
   4 C4             1.4898    -0.0294    -0.7974 C.2     
   5 N5             1.4214     1.3349    -0.8787 N.am    
   6 C6             0.2664     1.9413    -1.2753 C.2     
   7 C7             2.6731    -0.6619    -0.3907 C.2     
   8 C8             3.7708     0.0835    -0.0715 C.2     
   9 C9             3.6970     1.4862    -0.1568 C.2     
  10 C10            2.4927     2.0926    -0.5686 C.2     
  11 O11            2.4199     3.3074    -0.6457 O.2     
  12 C12            4.8606     2.3090     0.1806 C.2     
  13 O13            4.7834     3.6531     0.0968 O.3     
  14 O14            5.8968     1.7803     0.5364 O.2     
  15 C15            2.7327    -2.1653    -0.3056 C.3     
  16 N16            3.2873    -2.7048    -1.5543 N.3     
  17 C17            3.5818    -4.1375    -1.4236 C.3     
  18 C18            4.2897    -4.6316    -2.6873 C.3     
  19 C19            3.3886    -4.3853    -3.9005 C.3     
  20 C20            3.0574    -2.8928    -3.9858 C.3     
  21 C21            2.3853    -2.4492    -2.6845 C.3     
  22 C22            4.1046    -4.8148    -5.1550 C.ar    
  23 C23            4.7525    -6.0352    -5.1977 C.ar    
  24 C24            5.4093    -6.4292    -6.3485 C.ar    
  25 C25            5.4178    -5.6029    -7.4567 C.ar    
  26 C26            4.7692    -4.3830    -7.4144 C.ar    
  27 C27            4.1087    -3.9909    -6.2650 C.ar    
  28 C28            5.5859    -3.8832    -2.8631 C.2     
  29 O29            6.6077    -4.1038    -2.0211 O.3     
  30 O30            5.7053    -3.0846    -3.7619 O.2     
  31 C31            7.8258    -3.3475    -2.2504 C.3     
  32 C32            8.8696    -3.7308    -1.1994 C.3     
  33 H33           -1.7317     1.7059    -1.9095 H       
  34 H34           -1.6569    -0.7729    -1.7718 H       
  35 H35            0.4115    -1.8835    -1.0609 H       
  36 H36            0.2233     3.0187    -1.3361 H       
  37 H37            4.6852    -0.3975     0.2431 H       
  38 H38            5.5773     4.1538     0.3297 H       
  39 H39            3.3686    -2.4569     0.5303 H       
  40 H40            1.7284    -2.5607    -0.1533 H       
  41 H41            4.2267    -4.2984    -0.5596 H       
  42 H42            2.6511    -4.6889    -1.2895 H       
  43 H43            4.4941    -5.6983    -2.5964 H       
  44 H44            2.4671    -4.9573    -3.7919 H       
  45 H45            3.9755    -2.3241    -4.1334 H       
  46 H46            2.3815    -2.7173    -4.8227 H       
  47 H47            1.4602    -3.0084    -2.5446 H       
  48 H48            2.1611    -1.3837    -2.7364 H       
  49 H49            4.7458    -6.6807    -4.3319 H       
  50 H50            5.9160    -7.3823    -6.3816 H       
  51 H51            5.9316    -5.9104    -8.3556 H       
  52 H52            4.7762    -3.7373    -8.2801 H       
  53 H53            3.6019    -3.0377    -6.2319 H       
  54 H54            8.2116    -3.5729    -3.2446 H       
  55 H55            7.6109    -2.2815    -2.1771 H       
  56 H56            8.4837    -3.5055    -0.2052 H       
  57 H57            9.0845    -4.7969    -1.2727 H       
  58 H58            9.7840    -3.1631    -1.3715 H       
@<TRIPOS>BOND
   1    1    2 1
   2    1    6 2
   3    1   33 1
   4    2    3 2
   5    2   34 1
   6    3    4 1
   7    3   35 1
   8    4    5 1
   9    4    7 2
  10    5    6 1
  11    5   10 am
  12    6   36 1
  13    7    8 1
  14    7   15 1
  15    8    9 2
  16    8   37 1
  17    9   10 1
  18    9   12 1
  19   10   11 2
  20   12   13 1
  21   12   14 2
  22   13   38 1
  23   15   16 1
  24   15   39 1
  25   15   40 1
  26   16   17 1
  27   16   21 1
  28   17   18 1
  29   17   41 1
  30   17   42 1
  31   18   19 1
  32   18   28 1
  33   18   43 1
  34   19   20 1
  35   19   22 1
  36   19   44 1
  37   20   21 1
  38   20   45 1
  39   20   46 1
  40   21   47 1
  41   21   48 1
  42   22   23 ar
  43   22   27 ar
  44   23   24 ar
  45   23   49 1
  46   24   25 ar
  47   24   50 1
  48   25   26 ar
  49   25   51 1
  50   26   27 ar
  51   26   52 1
  52   27   53 1
  53   28   29 1
  54   28   30 2
  55   29   31 1
  56   31   32 1
  57   31   54 1
  58   31   55 1
  59   32   56 1
  60   32   57 1
  61   32   58 1

#	End of record

