#	Name: ASD01911350
#	Creating user name:	WinNT
#	Creation time:	15. 06. 2019 19:57

#	Modifying user name:	WinNT
#	Modification time:	15. 06. 2019 19:57

#	Program:	/corina/corina34_cracker 3.40 0067  02.08.2006

@<TRIPOS>MOLECULE
ASD01911350
  40   42    0    0    0
SMALL
NO_CHARGES


@<TRIPOS>ATOM
   1 C1            -0.0173     1.4278     0.0099 C.ar    
   2 C2             0.0021    -0.0041     0.0020 C.1     
   3 C3             0.0180    -1.1779    -0.0044 C.1     
   4 C4             0.0374    -2.6098    -0.0123 C.ar    
   5 N5            -1.1126    -3.2811    -0.0049 N.ar    
   6 C6            -1.1402    -4.5954    -0.0112 C.ar    
   7 C7             0.0510    -5.3261    -0.0425 C.ar    
   8 C8             1.2772    -4.6524    -0.0437 C.ar    
   9 C9             1.2645    -3.2821    -0.0335 C.ar    
  10 C10           -2.4537    -5.3334     0.0370 C.3     
  11 C11           -2.3547    -6.6317    -0.7597 C.3     
  12 N12           -1.1813    -7.4044    -0.3586 N.am    
  13 C13           -0.0076    -6.7989    -0.0944 C.2     
  14 O14            0.9942    -7.4602     0.0991 O.2     
  15 C15           -1.2832    -8.8612    -0.2415 C.3     
  16 C16           -0.2940    -9.5207    -1.2045 C.3     
  17 C17           -0.9560    -9.2817     1.1928 C.3     
  18 C18            1.1815     2.1465     0.0023 C.ar    
  19 C19            1.1548     3.5253     0.0095 C.ar    
  20 C20           -0.0549     4.1973     0.0246 C.ar    
  21 C21           -1.2459     3.4926     0.0327 C.ar    
  22 C22           -1.2353     2.1136     0.0194 C.ar    
  23 H23            2.2092    -5.1980    -0.0566 H       
  24 H24            2.1912    -2.7273    -0.0335 H       
  25 H25           -2.7014    -5.5632     1.0733 H       
  26 H26           -3.2366    -4.7064    -0.3895 H       
  27 H27           -3.2514    -7.2268    -0.5869 H       
  28 H28           -2.2820    -6.3955    -1.8213 H       
  29 H29           -2.2968    -9.1757    -0.4900 H       
  30 H30            0.7196    -9.2062    -0.9560 H       
  31 H31           -0.3698   -10.6046    -1.1174 H       
  32 H32           -0.5271    -9.2211    -2.2263 H       
  33 H33           -1.6607    -8.8118     1.8789 H       
  34 H34           -1.0318   -10.3655     1.2799 H       
  35 H35            0.0577    -8.9672     1.4413 H       
  36 H36            2.1263     1.6234    -0.0088 H       
  37 H37            2.0802     4.0820     0.0036 H       
  38 H38           -0.0696     5.2772     0.0305 H       
  39 H39           -2.1861     4.0239     0.0452 H       
  40 H40           -2.1655     1.5650     0.0253 H       
@<TRIPOS>BOND
   1    1    2 1
   2    1   18 ar
   3    1   22 ar
   4    2    3 3
   5    3    4 1
   6    4    5 ar
   7    4    9 ar
   8    5    6 ar
   9    6    7 ar
  10    6   10 1
  11    7    8 ar
  12    7   13 1
  13    8    9 ar
  14    8   23 1
  15    9   24 1
  16   10   11 1
  17   10   25 1
  18   10   26 1
  19   11   12 1
  20   11   27 1
  21   11   28 1
  22   12   13 am
  23   12   15 1
  24   13   14 2
  25   15   16 1
  26   15   17 1
  27   15   29 1
  28   16   30 1
  29   16   31 1
  30   16   32 1
  31   17   33 1
  32   17   34 1
  33   17   35 1
  34   18   19 ar
  35   18   36 1
  36   19   20 ar
  37   19   37 1
  38   20   21 ar
  39   20   38 1
  40   21   22 ar
  41   21   39 1
  42   22   40 1

#	End of record

