#	Name: ASD01913298
#	Creating user name:	WinNT
#	Creation time:	15. 06. 2019 20:01

#	Modifying user name:	WinNT
#	Modification time:	15. 06. 2019 20:01

#	Program:	/corina/corina34_cracker 3.40 0067  02.08.2006

@<TRIPOS>MOLECULE
ASD01913298
  49   52    0    0    0
SMALL
NO_CHARGES


@<TRIPOS>ATOM
   1 C1            -0.0187     1.5258     0.0104 C.3     
   2 C2             0.0021    -0.0041     0.0020 C.3     
   3 C3            -1.4328    -0.5349     0.0241 C.3     
   4 C4            -2.1785    -0.0374    -1.2169 C.3     
   5 C5            -2.1830     1.4871    -1.2331 C.3     
   6 C6            -0.7590     2.0318    -1.2303 C.3     
   7 C7            -2.9407     1.9986    -2.4749 C.3     
   8 C8            -4.3612     2.2176    -1.9059 C.3     
   9 N9            -4.1769     2.4398    -0.4664 N.am    
  10 C10           -2.9616     2.0286    -0.0605 C.2     
  11 C11           -5.1409     3.0058     0.3751 C.ar    
  12 C12           -6.3688     3.3986    -0.1397 C.ar    
  13 N13            1.3557     2.0331     0.0000 N.am    
  14 C14            2.0342     2.1647     1.1571 C.2     
  15 O15            1.5059     1.8627     2.2089 O.2     
  16 C16            3.4241     2.6777     1.1466 C.ar    
  17 C17            4.1199     2.8115     2.3456 C.ar    
  18 O18           -2.5531     2.0845     1.0802 O.2     
  19 C19            5.4199     3.2924     2.3198 C.ar    
  20 C20            5.9783     3.6227     1.0952 C.ar    
  21 C21            5.2273     3.4641    -0.0589 C.ar    
  22 N22            3.9977     3.0009    -0.0061 N.ar    
  23 C23           -7.3199     3.9575     0.6953 C.ar    
  24 C24           -7.0467     4.1245     2.0427 C.ar    
  25 C25           -5.8240     3.7336     2.5563 C.ar    
  26 C26           -4.8731     3.1703     1.7281 C.ar    
  27 F27           -1.4128    -1.9337     0.0268 F       
  28 F28           -2.0828    -0.0751     1.1744 F       
  29 F29           -8.5153     4.3408     0.1960 F       
  30 H30           -0.5291     1.8774     0.9070 H       
  31 H31            0.5056    -0.3555    -0.8986 H       
  32 H32            0.5363    -0.3649     0.8809 H       
  33 H33           -1.6806    -0.4086    -2.1127 H       
  34 H34           -3.2050    -0.4033    -1.1945 H       
  35 H35           -0.7871     3.1214    -1.2171 H       
  36 H36           -0.2390     1.6933    -2.1265 H       
  37 H37           -2.5150     2.9358    -2.8335 H       
  38 H38           -2.9480     1.2475    -3.2647 H       
  39 H39           -4.8214     3.0918    -2.3666 H       
  40 H40           -4.9758     1.3335    -2.0754 H       
  41 H41           -6.5812     3.2684    -1.1906 H       
  42 H42            1.7773     2.2742    -0.8396 H       
  43 H43            3.6532     2.5446     3.2823 H       
  44 H44            5.9844     3.4074     3.2332 H       
  45 H45            6.9886     4.0004     1.0407 H       
  46 H46            5.6593     3.7206    -1.0149 H       
  47 H47           -7.7899     4.5612     2.6933 H       
  48 H48           -5.6137     3.8650     3.6074 H       
  49 H49           -3.9185     2.8655     2.1308 H       
@<TRIPOS>BOND
   1    1    2 1
   2    1   13 1
   3    1    6 1
   4    1   30 1
   5    2    3 1
   6    2   31 1
   7    2   32 1
   8    3    4 1
   9    3   27 1
  10    3   28 1
  11    4    5 1
  12    4   33 1
  13    4   34 1
  14    5    6 1
  15    5    7 1
  16    5   10 1
  17    6   35 1
  18    6   36 1
  19    7    8 1
  20    7   37 1
  21    7   38 1
  22    8    9 1
  23    8   39 1
  24    8   40 1
  25    9   10 am
  26    9   11 1
  27   10   18 2
  28   11   12 ar
  29   11   26 ar
  30   12   23 ar
  31   12   41 1
  32   13   14 am
  33   13   42 1
  34   14   15 2
  35   14   16 1
  36   16   17 ar
  37   16   22 ar
  38   17   19 ar
  39   17   43 1
  40   19   20 ar
  41   19   44 1
  42   20   21 ar
  43   20   45 1
  44   21   22 ar
  45   21   46 1
  46   23   24 ar
  47   23   29 1
  48   24   25 ar
  49   24   47 1
  50   25   26 ar
  51   25   48 1
  52   26   49 1

#	End of record

