#	Name: ASD01148748
#	Creating user name:	WinNT
#	Creation time:	15. 06. 2019 19:03

#	Modifying user name:	WinNT
#	Modification time:	15. 06. 2019 19:03

#	Program:	/corina/corina34_cracker 3.40 0067  02.08.2006

@<TRIPOS>MOLECULE
ASD01148748
  54   56    0    0    0
SMALL
NO_CHARGES


@<TRIPOS>ATOM
   1 N1             0.0932     0.3304     1.3708 N.pl3   
   2 C2             0.3512    -0.9156     0.9031 C.2     
   3 C3             1.6729    -0.9633     0.5143 C.2     
   4 C4             2.2263     0.3193     0.7643 C.2     
   5 C5             1.2377     1.0884     1.2874 C.2     
   6 C6             2.3775    -2.1257    -0.0531 C.2     
   7 O7             2.1408    -3.2434     0.3641 O.2     
   8 N8             3.2844    -1.9508    -1.0346 N.am    
   9 C9             3.6527    -0.5978    -1.4590 C.3     
  10 C10            3.9019    -3.1136    -1.6771 C.3     
  11 C11            3.5859    -3.0969    -3.1740 C.3     
  12 C12            5.4177    -3.0626    -1.4753 C.3     
  13 C13           -1.1433     0.7763     1.8558 C.ar    
  14 C14           -1.6606     0.2489     3.0315 C.ar    
  15 C15           -2.8798     0.6905     3.5071 C.ar    
  16 C16           -3.5853     1.6565     2.8134 C.ar    
  17 C17           -3.0728     2.1837     1.6423 C.ar    
  18 C18           -1.8513     1.7506     1.1649 C.ar    
  19 S19           -5.1409     2.2165     3.4228 S.o2    
  20 O20           -5.8476     2.7337     2.3038 O.2     
  21 O21           -5.6465     1.1761     4.2482 O.2     
  22 N22           -4.8417     3.5026     4.4221 N.am    
  23 C23           -0.6357    -2.0516     0.8222 C.3     
  24 C24            1.3689     2.5031     1.6980 C.ar    
  25 C25            0.4547     3.0605     2.5929 C.ar    
  26 C26            0.5825     4.3805     2.9727 C.ar    
  27 C27            1.6151     5.1522     2.4673 C.ar    
  28 C28            2.5250     4.6048     1.5786 C.ar    
  29 C29            2.4110     3.2842     1.1965 C.ar    
  30 Cl30           1.7692     6.8128     2.9493 Cl      
  31 H31            3.2442     0.6261     0.5743 H       
  32 H32            4.4317    -0.2105    -0.8024 H       
  33 H33            4.0224    -0.6266    -2.4840 H       
  34 H34            2.7778     0.0502    -1.4064 H       
  35 H35            3.5067    -4.0269    -1.2325 H       
  36 H36            3.9811    -2.1835    -3.6186 H       
  37 H37            4.0453    -3.9620    -3.6520 H       
  38 H38            2.5060    -3.1331    -3.3178 H       
  39 H39            5.8130    -2.1493    -1.9199 H       
  40 H40            5.6429    -3.0745    -0.4089 H       
  41 H41            5.8772    -3.9278    -1.9533 H       
  42 H42           -1.1103    -0.5061     3.5733 H       
  43 H43           -3.2827     0.2807     4.4215 H       
  44 H44           -3.6262     2.9381     1.1028 H       
  45 H45           -1.4492     2.1662     0.2527 H       
  46 H46           -3.9307     3.8020     4.5677 H       
  47 H47           -5.5776     3.9566     4.8618 H       
  48 H48           -1.1411    -2.0258    -0.1432 H       
  49 H49           -0.1085    -2.9994     0.9311 H       
  50 H50           -1.3714    -1.9512     1.6202 H       
  51 H51           -0.3515     2.4597     2.9872 H       
  52 H52           -0.1245     4.8129     3.6652 H       
  53 H53            3.3280     5.2117     1.1872 H       
  54 H54            3.1241     2.8569     0.5070 H       
@<TRIPOS>BOND
   1    1    2 1
   2    1    5 1
   3    1   13 1
   4    2    3 2
   5    2   23 1
   6    3    4 1
   7    3    6 1
   8    4    5 2
   9    4   31 1
  10    5   24 1
  11    6    7 2
  12    6    8 am
  13    8    9 1
  14    8   10 1
  15    9   32 1
  16    9   33 1
  17    9   34 1
  18   10   11 1
  19   10   12 1
  20   10   35 1
  21   11   36 1
  22   11   37 1
  23   11   38 1
  24   12   39 1
  25   12   40 1
  26   12   41 1
  27   13   14 ar
  28   13   18 ar
  29   14   15 ar
  30   14   42 1
  31   15   16 ar
  32   15   43 1
  33   16   17 ar
  34   16   19 1
  35   17   18 ar
  36   17   44 1
  37   18   45 1
  38   19   20 2
  39   19   21 2
  40   19   22 am
  41   22   46 1
  42   22   47 1
  43   23   48 1
  44   23   49 1
  45   23   50 1
  46   24   25 ar
  47   24   29 ar
  48   25   26 ar
  49   25   51 1
  50   26   27 ar
  51   26   52 1
  52   27   28 ar
  53   27   30 1
  54   28   29 ar
  55   28   53 1
  56   29   54 1

#	End of record

