#	Name: ASD01912618
#	Creating user name:	WinNT
#	Creation time:	15. 06. 2019 20:00

#	Modifying user name:	WinNT
#	Modification time:	15. 06. 2019 20:00

#	Program:	/corina/corina34_cracker 3.40 0067  02.08.2006

@<TRIPOS>MOLECULE
ASD01912618
  59   62    0    0    0
SMALL
NO_CHARGES


@<TRIPOS>ATOM
   1 C1             0.7325     1.3970    -1.3805 C.ar    
   2 C2             0.7244     0.0160    -1.3070 C.ar    
   3 C3             1.3193    -0.6070    -0.2143 C.ar    
   4 N4             1.8858     0.1099     0.7438 N.ar    
   5 C5             1.9084     1.4287     0.6999 C.ar    
   6 C6             1.3375     2.1117    -0.3549 C.ar    
   7 N7             1.3184    -1.9943    -0.1277 N.3     
   8 C8             2.6854    -2.5272    -0.2009 C.3     
   9 C9             0.6353    -2.4451     1.0922 C.3     
  10 C10            0.4961    -3.9709     1.0615 C.3     
  11 N11            1.8269    -4.5571     0.8411 N.am    
  12 C12            2.6301    -4.0563    -0.2846 C.3     
  13 C13            2.2976    -5.5278     1.6489 C.2     
  14 O14            3.3542    -6.0721     1.3934 O.2     
  15 N15            1.5969    -5.8952     2.7401 N.am    
  16 C16            2.1295    -6.8153     3.6277 C.2     
  17 S17            1.3286    -7.3828     5.0862 S.3     
  18 C18            2.7059    -8.4174     5.4564 C.ar    
  19 C19            3.6632    -8.2543     4.4506 C.ar    
  20 N20            3.2795    -7.3808     3.4988 N.2     
  21 C21            2.9391    -9.2900     6.5167 C.ar    
  22 C22            4.1168   -10.0004     6.5829 C.ar    
  23 C23            5.0751    -9.8479     5.5914 C.ar    
  24 C24            4.8623    -8.9930     4.5400 C.ar    
  25 C25            4.0470    -4.6272    -0.1991 C.3     
  26 C26            0.0795    -0.8030    -2.3954 C.3     
  27 F27           -0.5401     0.0495    -3.3154 F       
  28 F28            1.0562    -1.5628    -3.0481 F       
  29 F29           -0.8762    -1.6560    -1.8330 F       
  30 C30            4.3648   -10.9429     7.7323 C.3     
  31 C31            3.2807   -12.0224     7.7497 C.3     
  32 C32            5.7364   -11.6003     7.5659 C.3     
  33 C33            4.3293   -10.1631     9.0481 C.3     
  34 H34            0.2824     1.9080    -2.2188 H       
  35 H35            2.3793     1.9806     1.4999 H       
  36 H36            1.3612     3.1911    -0.3824 H       
  37 H37            3.1828    -2.1322    -1.0867 H       
  38 H38            3.2393    -2.2315     0.6901 H       
  39 H39            1.2178    -2.1505     1.9652 H       
  40 H40           -0.3540    -1.9906     1.1442 H       
  41 H41            0.0946    -4.3211     2.0124 H       
  42 H42           -0.1710    -4.2614     0.2499 H       
  43 H43            2.1682    -4.3550    -1.2256 H       
  44 H44            0.7196    -5.5151     2.9037 H       
  45 H45            2.1941    -9.4095     7.2894 H       
  46 H46            5.9973   -10.4071     5.6481 H       
  47 H47            5.6173    -8.8848     3.7753 H       
  48 H48            4.0186    -5.7001    -0.3894 H       
  49 H49            4.6795    -4.1429    -0.9431 H       
  50 H50            4.4525    -4.4454     0.7962 H       
  51 H51            3.3060   -12.5780     6.8123 H       
  52 H52            3.4601   -12.7041     8.5811 H       
  53 H53            2.3036   -11.5541     7.8682 H       
  54 H54            6.5087   -10.8313     7.5535 H       
  55 H55            5.9158   -12.2820     8.3973 H       
  56 H56            5.7617   -12.1559     6.6285 H       
  57 H57            3.3521    -9.6948     9.1666 H       
  58 H58            4.5087   -10.8448     9.8795 H       
  59 H59            5.1016    -9.3941     9.0357 H       
@<TRIPOS>BOND
   1    1    2 ar
   2    1    6 ar
   3    1   34 1
   4    2    3 ar
   5    2   26 1
   6    3    4 ar
   7    3    7 1
   8    4    5 ar
   9    5    6 ar
  10    5   35 1
  11    6   36 1
  12    7    8 1
  13    7    9 1
  14    8   12 1
  15    8   37 1
  16    8   38 1
  17    9   10 1
  18    9   39 1
  19    9   40 1
  20   10   11 1
  21   10   41 1
  22   10   42 1
  23   11   12 1
  24   11   13 am
  25   12   25 1
  26   12   43 1
  27   13   14 2
  28   13   15 am
  29   15   16 1
  30   15   44 1
  31   16   17 1
  32   16   20 2
  33   17   18 1
  34   18   19 ar
  35   18   21 ar
  36   19   20 1
  37   19   24 ar
  38   21   22 ar
  39   21   45 1
  40   22   23 ar
  41   22   30 1
  42   23   24 ar
  43   23   46 1
  44   24   47 1
  45   25   48 1
  46   25   49 1
  47   25   50 1
  48   26   27 1
  49   26   28 1
  50   26   29 1
  51   30   31 1
  52   30   32 1
  53   30   33 1
  54   31   51 1
  55   31   52 1
  56   31   53 1
  57   32   54 1
  58   32   55 1
  59   32   56 1
  60   33   57 1
  61   33   58 1
  62   33   59 1

#	End of record

