#	Name: ASD01208983
#	Creating user name:	WinNT
#	Creation time:	15. 06. 2019 19:10

#	Modifying user name:	WinNT
#	Modification time:	15. 06. 2019 19:10

#	Program:	/corina/corina34_cracker 3.40 0067  02.08.2006

@<TRIPOS>MOLECULE
ASD01208983
  55   59    0    0    0
SMALL
NO_CHARGES


@<TRIPOS>ATOM
   1 C1            -2.0872     1.7061     0.4002 C.3     
   2 C2            -2.0287     0.2363     0.8272 C.3     
   3 C3            -1.2119    -0.5607    -0.1920 C.3     
   4 C4            -1.3160    -2.0536     0.1263 C.3     
   5 C5            -0.6326    -2.3361     1.4393 C.2     
   6 N6             0.6524    -1.9732     1.6220 N.am    
   7 C7             1.3163    -2.3301     2.7905 C.2     
   8 N8            -2.7272    -2.4361     0.2180 N.pl3   
   9 C9            -3.4858    -2.3193     1.3163 C.2     
  10 C10           -4.7520    -2.7815     1.0095 C.ar    
  11 C11           -4.7109    -3.2023    -0.3998 C.ar    
  12 N12           -3.4840    -2.9718    -0.8304 N.2     
  13 O13           -1.2390    -2.8901     2.3317 O.2     
  14 S14            2.9405    -1.9378     3.1524 S.3     
  15 C15            2.8076    -2.7685     4.7003 C.2     
  16 C16            1.5696    -3.2587     4.8020 C.2     
  17 N17            0.7920    -3.0034     3.7655 N.2     
  18 Cl18           4.0664    -2.9236     5.8856 Cl      
  19 C19           -1.3631     0.1419     2.2035 C.3     
  20 C20           -2.1424     1.0055     3.1989 C.3     
  21 O21           -2.1851     2.3535     2.7264 O.3     
  22 C22           -2.8385     2.5093     1.4651 C.3     
  23 C23           -5.9626    -2.9136     1.7227 C.ar    
  24 C24           -7.0545    -3.4219     1.0985 C.ar    
  25 C25           -7.0160    -3.8220    -0.2393 C.ar    
  26 C26           -5.8861    -3.7229    -0.9831 C.ar    
  27 S27           -8.5605    -3.5822     1.9989 S.o2    
  28 O28           -9.2489    -4.6396     1.3451 O.2     
  29 O29           -8.1479    -3.7038     3.3532 O.2     
  30 C30           -9.4167    -2.0052     1.7334 C.3     
  31 C31          -10.7264    -1.7762     2.4904 C.3     
  32 C32           -9.4619    -1.0202     2.9032 C.3     
  33 H33           -1.0746     2.0961     0.2969 H       
  34 H34           -2.6090     1.7880    -0.5533 H       
  35 H35           -3.0394    -0.1683     0.8809 H       
  36 H36           -1.5997    -0.3748    -1.1936 H       
  37 H37           -0.1680    -0.2507    -0.1433 H       
  38 H38           -0.8345    -2.6282    -0.6650 H       
  39 H39            1.1142    -1.4631     0.9383 H       
  40 H40           -3.1646    -1.9330     2.2723 H       
  41 H41            1.2307    -3.8149     5.6635 H       
  42 H42           -1.3670    -0.8949     2.5398 H       
  43 H43           -0.3358     0.5002     2.1367 H       
  44 H44           -3.1580     0.6219     3.2956 H       
  45 H45           -1.6485     0.9762     4.1701 H       
  46 H46           -2.8461     3.5633     1.1874 H       
  47 H47           -3.8633     2.1453     1.5392 H       
  48 H48           -6.0193    -2.6125     2.7583 H       
  49 H49           -7.9105    -4.2217    -0.6938 H       
  50 H50           -5.8857    -4.0401    -2.0155 H       
  51 H51           -9.3371    -1.5904     0.7285 H       
  52 H52          -11.5083    -1.2104     1.9838 H       
  53 H53          -11.0736    -2.5731     3.1480 H       
  54 H54           -8.9772    -1.3198     3.8324 H       
  55 H55           -9.4119     0.0430     2.6682 H       
@<TRIPOS>BOND
   1    1    2 1
   2    1   22 1
   3    1   33 1
   4    1   34 1
   5    2    3 1
   6    2   19 1
   7    2   35 1
   8    3    4 1
   9    3   36 1
  10    3   37 1
  11    4    5 1
  12    4    8 1
  13    4   38 1
  14    5    6 am
  15    5   13 2
  16    6    7 1
  17    6   39 1
  18    7   14 1
  19    7   17 2
  20    8    9 1
  21    8   12 1
  22    9   10 2
  23    9   40 1
  24   10   11 ar
  25   10   23 ar
  26   11   12 2
  27   11   26 ar
  28   14   15 1
  29   15   16 2
  30   15   18 1
  31   16   17 1
  32   16   41 1
  33   19   20 1
  34   19   42 1
  35   19   43 1
  36   20   21 1
  37   20   44 1
  38   20   45 1
  39   21   22 1
  40   22   46 1
  41   22   47 1
  42   23   24 ar
  43   23   48 1
  44   24   25 ar
  45   24   27 1
  46   25   26 ar
  47   25   49 1
  48   26   50 1
  49   27   28 2
  50   27   29 2
  51   27   30 1
  52   30   31 1
  53   30   32 1
  54   30   51 1
  55   31   32 1
  56   31   52 1
  57   31   53 1
  58   32   54 1
  59   32   55 1

#	End of record

