#	Name: ASD01940603
#	Creating user name:	WinNT
#	Creation time:	15. 06. 2019 20:12

#	Modifying user name:	WinNT
#	Modification time:	15. 06. 2019 20:12

#	Program:	/corina/corina34_cracker 3.40 0067  02.08.2006

@<TRIPOS>MOLECULE
ASD01940603
  40   42    0    0    0
SMALL
NO_CHARGES


@<TRIPOS>ATOM
   1 C1            -0.1695     1.4721     0.1933 C.ar    
   2 C2            -0.3192     0.0748     0.2021 C.ar    
   3 C3             0.8028    -0.7192     0.3891 C.ar    
   4 N4             1.9945    -0.1823     0.5571 N.ar    
   5 C5             2.1853     1.1202     0.5567 C.ar    
   6 C6             1.1222     1.9984     0.3763 C.ar    
   7 N7             1.3323     3.3717     0.3767 N.pl3   
   8 C8             2.4358     3.9103     1.0469 C.ar    
   9 C9            -1.3298     2.3592    -0.0076 C.2     
  10 O10           -1.9701     2.7489     0.9499 O.2     
  11 N11           -1.6807     2.7383    -1.2524 N.am    
  12 O12           -1.5414    -0.4885     0.0309 O.3     
  13 C13           -1.6462    -1.8370     0.1614 C.ar    
  14 C14            3.0576     3.1876     2.0563 C.ar    
  15 C15            4.1474     3.7216     2.7160 C.ar    
  16 C16            4.6201     4.9757     2.3731 C.ar    
  17 C17            4.0037     5.6998     1.3684 C.ar    
  18 C18            2.9161     5.1686     0.6996 C.ar    
  19 I19            6.2729     5.7803     3.3780 I       
  20 F20            2.3173     5.8733    -0.2853 F       
  21 C21           -1.6570    -2.4130     1.4225 C.ar    
  22 C22           -1.7647    -3.7906     1.5522 C.ar    
  23 C23           -1.8614    -4.5880     0.4180 C.ar    
  24 C24           -1.8498    -4.0102    -0.8365 C.ar    
  25 C25           -1.7484    -2.6380    -0.9674 C.ar    
  26 N26           -1.7754    -4.3748     2.8208 N.pl3   
  27 H27            0.6981    -1.7940     0.3974 H       
  28 H28            3.1815     1.5123     0.6985 H       
  29 H29            0.7137     3.9571    -0.0876 H       
  30 H30           -1.1698     2.4274    -2.0162 H       
  31 H31           -2.4440     3.3219    -1.3846 H       
  32 H32            2.6893     2.2087     2.3256 H       
  33 H33            4.6310     3.1593     3.5011 H       
  34 H34            4.3748     6.6787     1.1032 H       
  35 H35           -1.5813    -1.7910     2.3021 H       
  36 H36           -1.9452    -5.6601     0.5176 H       
  37 H37           -1.9247    -4.6315    -1.7167 H       
  38 H38           -1.7445    -2.1889    -1.9496 H       
  39 H39           -1.7075    -3.8177     3.6119 H       
  40 H40           -1.8507    -5.3377     2.9106 H       
@<TRIPOS>BOND
   1    1    2 ar
   2    1    6 ar
   3    1    9 1
   4    2    3 ar
   5    2   12 1
   6    3    4 ar
   7    3   27 1
   8    4    5 ar
   9    5    6 ar
  10    5   28 1
  11    6    7 1
  12    7    8 1
  13    7   29 1
  14    8   14 ar
  15    8   18 ar
  16    9   10 2
  17    9   11 am
  18   11   30 1
  19   11   31 1
  20   12   13 1
  21   13   21 ar
  22   13   25 ar
  23   14   15 ar
  24   14   32 1
  25   15   16 ar
  26   15   33 1
  27   16   17 ar
  28   16   19 1
  29   17   18 ar
  30   17   34 1
  31   18   20 1
  32   21   22 ar
  33   21   35 1
  34   22   23 ar
  35   22   26 1
  36   23   24 ar
  37   23   36 1
  38   24   25 ar
  39   24   37 1
  40   25   38 1
  41   26   39 1
  42   26   40 1

#	End of record

