#	Name: ASD02610007
#	Creating user name:	WinNT
#	Creation time:	15. 06. 2019 20:25

#	Modifying user name:	WinNT
#	Modification time:	15. 06. 2019 20:25

#	Program:	/corina/corina34_cracker 3.40 0067  02.08.2006

@<TRIPOS>MOLECULE
ASD02610007
  95   98    0    0    0
SMALL
NO_CHARGES


@<TRIPOS>ATOM
   1 C1             0.4551     1.1835    -0.1759 C.3     
   2 C2             0.5826    -0.3009    -0.5894 C.3     
   3 C3             1.8433    -0.7790     0.0882 C.2     
   4 C4             2.5838     0.2315     0.4874 C.2     
   5 C5             1.9306     1.5377     0.1345 C.3     
   6 C6             3.8877     0.0523     1.2253 C.3     
   7 C7             4.9118     1.0878     0.7591 C.3     
   8 C8             4.9393     1.5322    -0.6215 C.3     
   9 C9             3.9395     2.6651    -0.8863 C.3     
  10 C10            2.5433     2.1659    -1.1108 C.3     
  11 O11            0.7083    -0.4155    -2.0314 O.3     
  12 C12            0.2220    -1.5363    -2.6010 C.2     
  13 O13           -0.2930    -2.3942    -1.9111 O.2     
  14 C14            0.3145    -1.7209    -4.0559 C.2     
  15 C15            0.9531    -0.6571    -4.9112 C.3     
  16 C16           -0.1656    -2.8274    -4.6181 C.2     
  17 C17           -0.8042    -3.8912    -3.7628 C.3     
  18 C18            2.2066    -2.2285     0.2828 C.3     
  19 O19           -0.3760     1.3266     1.0062 O.3     
  20 C20           -1.6883     1.5268     0.8078 C.2     
  21 C21           -2.6132     1.6843     1.9872 C.3     
  22 O22           -2.1281     1.5807    -0.3163 O.2     
  23 H23            1.9840     2.2258     0.9782 H       
  24 O24            1.7107     3.2786    -1.5316 O.3     
  25 C25            2.5670     1.1217    -2.2289 C.3     
  26 C26            1.5540     4.2864    -0.6590 C.2     
  27 O27            4.6183     0.4094    -1.4844 O.3     
  28 C28            5.3533     0.2674    -2.5986 C.2     
  29 C29            5.0779    -0.8746    -3.5425 C.3     
  30 O30            6.2356     1.0553    -2.8447 O.2     
  31 O31            3.7210     0.3840     2.6209 O.3     
  32 C32            4.9430     0.9311     3.1378 C.3     
  33 C33            5.7743     1.4336     1.9257 C.3     
  34 H34            4.2704    -0.9603     1.0977 H       
  35 O35            3.9676     2.0959     1.1254 O.3     
  36 C36           -4.0436     1.8991     1.4884 C.3     
  37 C37           -4.9826     2.0590     2.6858 C.3     
  38 C38           -6.4130     2.2737     2.1870 C.3     
  39 C39           -7.3520     2.4337     3.3844 C.3     
  40 C40            6.0490    -0.8061    -4.7229 C.3     
  41 C41            5.7694    -1.9656    -5.6812 C.3     
  42 C42            0.6699     5.4556    -1.0091 C.3     
  43 H43            4.8695     1.5372     4.0407 H       
  44 O44            2.1218     4.2563     0.4071 O.2     
  45 C45            6.4988     2.7811     1.9102 C.3     
  46 O46            6.2087     0.3799     2.8019 O.3     
  47 C47           -8.7824     2.6484     2.8856 C.3     
  48 C48           -9.7214     2.8083     4.0830 C.3     
  49 H49            0.0715     1.7878    -0.9980 H       
  50 H50           -0.2778    -0.8691    -0.2358 H       
  51 H51            5.9432     1.8836    -0.8600 H       
  52 H52            3.9383     3.3403    -0.0306 H       
  53 H53            4.2611     3.2190    -1.7683 H       
  54 H54            2.0210    -0.8561    -5.0016 H       
  55 H55            0.4971    -0.6647    -5.9012 H       
  56 H56            0.8032     0.3188    -4.4496 H       
  57 H57           -0.0976    -2.9631    -5.6874 H       
  58 H58           -1.6613    -3.4693    -3.2379 H       
  59 H59           -1.1348    -4.7155    -4.3947 H       
  60 H60           -0.0783    -4.2582    -3.0371 H       
  61 H61            1.4239    -2.8591    -0.1389 H       
  62 H62            3.1512    -2.4369    -0.2197 H       
  63 H63            2.3076    -2.4379     1.3477 H       
  64 H64           -2.5740     0.7853     2.6023 H       
  65 H65           -2.3023     2.5443     2.5804 H       
  66 H66            1.6146     1.1352    -2.7589 H       
  67 H67            3.3734     1.3528    -2.9249 H       
  68 H68            2.7299     0.1332    -1.7995 H       
  69 H69            5.2108    -1.8203    -3.0171 H       
  70 H70            4.0541    -0.8037    -3.9097 H       
  71 H71            3.8433     2.1902     2.0797 H       
  72 H72           -4.0828     2.7981     0.8733 H       
  73 H73           -4.3545     1.0391     0.8952 H       
  74 H74           -4.9434     1.1600     3.3009 H       
  75 H75           -4.6717     2.9190     3.2790 H       
  76 H76           -6.4522     3.1727     1.5719 H       
  77 H77           -6.7239     1.4138     1.5938 H       
  78 H78           -7.3128     1.5347     3.9995 H       
  79 H79           -7.0411     3.2936     3.9776 H       
  80 H80            5.9161     0.1396    -5.2483 H       
  81 H81            7.0728    -0.8770    -4.3557 H       
  82 H82            6.4612    -1.9168    -6.5221 H       
  83 H83            5.9023    -2.9113    -5.1558 H       
  84 H84            4.7456    -1.8947    -6.0484 H       
  85 H85            0.2472     5.3067    -2.0027 H       
  86 H86           -0.1360     5.5331    -0.2793 H       
  87 H87            1.2591     6.3726    -0.9985 H       
  88 H88            5.7668     3.5865     1.8512 H       
  89 H89            7.0850     2.8889     2.8228 H       
  90 H90            7.1608     2.8277     1.0455 H       
  91 H91           -8.8216     3.5474     2.2705 H       
  92 H92           -9.0933     1.7884     2.2924 H       
  93 H93          -10.7404     2.9613     3.7276 H       
  94 H94           -9.6822     1.9093     4.6981 H       
  95 H95           -9.4105     3.6683     4.6762 H       
@<TRIPOS>BOND
   1    1    2 1
   2    1    5 1
   3    1   19 1
   4    1   49 1
   5    2    3 1
   6    2   11 1
   7    2   50 1
   8    3    4 2
   9    3   18 1
  10    4    5 1
  11    4    6 1
  12    5   10 1
  13    5   23 1
  14    6    7 1
  15    6   31 1
  16    6   34 1
  17    7   33 1
  18    7   35 1
  19    7    8 1
  20    8    9 1
  21    8   27 1
  22    8   51 1
  23    9   10 1
  24    9   52 1
  25    9   53 1
  26   10   24 1
  27   10   25 1
  28   11   12 1
  29   12   13 2
  30   12   14 1
  31   14   15 1
  32   14   16 2
  33   15   54 1
  34   15   55 1
  35   15   56 1
  36   16   17 1
  37   16   57 1
  38   17   58 1
  39   17   59 1
  40   17   60 1
  41   18   61 1
  42   18   62 1
  43   18   63 1
  44   19   20 1
  45   20   21 1
  46   20   22 2
  47   21   36 1
  48   21   64 1
  49   21   65 1
  50   24   26 1
  51   25   66 1
  52   25   67 1
  53   25   68 1
  54   26   42 1
  55   26   44 2
  56   27   28 1
  57   28   29 1
  58   28   30 2
  59   29   40 1
  60   29   69 1
  61   29   70 1
  62   31   32 1
  63   32   33 1
  64   32   43 1
  65   32   46 1
  66   33   45 1
  67   33   46 1
  68   35   71 1
  69   36   37 1
  70   36   72 1
  71   36   73 1
  72   37   38 1
  73   37   74 1
  74   37   75 1
  75   38   39 1
  76   38   76 1
  77   38   77 1
  78   39   47 1
  79   39   78 1
  80   39   79 1
  81   40   41 1
  82   40   80 1
  83   40   81 1
  84   41   82 1
  85   41   83 1
  86   41   84 1
  87   42   85 1
  88   42   86 1
  89   42   87 1
  90   45   88 1
  91   45   89 1
  92   45   90 1
  93   47   48 1
  94   47   91 1
  95   47   92 1
  96   48   93 1
  97   48   94 1
  98   48   95 1

#	End of record

