#	Name: ASD01100011
#	Creating user name:	WinNT
#	Creation time:	15. 06. 2019 18:58

#	Modifying user name:	WinNT
#	Modification time:	15. 06. 2019 18:58

#	Program:	/corina/corina34_cracker 3.40 0067  02.08.2006

@<TRIPOS>MOLECULE
ASD01100011
  35   36    0    0    0
SMALL
NO_CHARGES


@<TRIPOS>ATOM
   1 C1             0.2928     0.4786    -0.1630 C.ar    
   2 C2             0.6371    -0.8551    -0.0329 C.ar    
   3 C3             1.9635    -1.2140     0.1281 C.ar    
   4 C4             2.9438    -0.2401     0.1590 C.ar    
   5 C5             2.5991     1.0923     0.0289 C.ar    
   6 C6             1.2739     1.4516    -0.1320 C.ar    
   7 C7             3.6684     2.1537     0.0631 C.3     
   8 S8             3.7039     3.0277    -1.5261 S.o2    
   9 N9             5.0183     4.0292    -1.4176 N.am    
  10 C10            3.3642     3.1482     1.1854 C.3     
  11 C11            3.1887     2.3915     2.5036 C.3     
  12 C12            4.5224     4.1392     1.3165 C.3     
  13 Cl13          -0.5948    -2.0777    -0.0712 Cl      
  14 C14            6.2926     3.4923    -1.3210 C.2     
  15 N15            7.3856     4.1846    -1.2316 N.2     
  16 C16            8.5164     3.5067    -1.1466 C.2     
  17 C17            8.3713     2.1814    -1.1651 C.2     
  18 S18            6.6518     1.8210    -1.2950 S.3     
  19 O19            4.0313     2.1327    -2.5801 O.2     
  20 O20            2.5972     3.9124    -1.6334 O.2     
  21 H21           -0.7420     0.7590    -0.2932 H       
  22 H22            2.2329    -2.2549     0.2301 H       
  23 H23            3.9792    -0.5201     0.2850 H       
  24 H24            1.0053     2.4927    -0.2336 H       
  25 H25            4.6372     1.6878     0.2433 H       
  26 H26            4.8965     4.9915    -1.4217 H       
  27 H27            2.4473     3.6896     0.9524 H       
  28 H28            4.1287     1.9107     2.7744 H       
  29 H29            2.8989     3.0907     3.2880 H       
  30 H30            2.4134     1.6342     2.3873 H       
  31 H31            5.4601     3.5917     1.4115 H       
  32 H32            4.5601     4.7733     0.4307 H       
  33 H33            4.3722     4.7587     2.2006 H       
  34 H34            9.4805     3.9872    -1.0688 H       
  35 H35            9.1687     1.4554    -1.1064 H       
@<TRIPOS>BOND
   1    1    2 ar
   2    1    6 ar
   3    1   21 1
   4    2    3 ar
   5    2   13 1
   6    3    4 ar
   7    3   22 1
   8    4    5 ar
   9    4   23 1
  10    5    6 ar
  11    5    7 1
  12    6   24 1
  13    7    8 1
  14    7   10 1
  15    7   25 1
  16    8    9 am
  17    8   19 2
  18    8   20 2
  19    9   14 1
  20    9   26 1
  21   10   11 1
  22   10   12 1
  23   10   27 1
  24   11   28 1
  25   11   29 1
  26   11   30 1
  27   12   31 1
  28   12   32 1
  29   12   33 1
  30   14   15 2
  31   14   18 1
  32   15   16 1
  33   16   17 2
  34   16   34 1
  35   17   18 1
  36   17   35 1

#	End of record

