#	Name: ASD02448038
#	Creating user name:	WinNT
#	Creation time:	15. 06. 2019 20:21

#	Modifying user name:	WinNT
#	Modification time:	15. 06. 2019 20:21

#	Program:	/corina/corina34_cracker 3.40 0067  02.08.2006

@<TRIPOS>MOLECULE
ASD02448038
  75   80    0    0    0
SMALL
NO_CHARGES


@<TRIPOS>ATOM
   1 C1            -0.9818    -5.4326     2.4268 C.ar    
   2 C2            -0.2347    -6.5531     2.7347 C.ar    
   3 C3             1.1445    -6.5369     2.5710 C.ar    
   4 C4             1.7721    -5.3944     2.0979 C.ar    
   5 C5             1.0191    -4.2698     1.7892 C.ar    
   6 C6            -0.3601    -4.2924     1.9551 C.ar    
   7 N7             1.6473    -3.1168     1.3128 N.am    
   8 C8             1.0696    -2.0516     0.4829 C.3     
   9 C9             2.0760    -0.9867     0.1874 C.2     
  10 N10            3.2879    -1.1958     0.7206 N.am    
  11 S11            3.2236    -2.6307     1.5621 S.o2    
  12 O12            1.8165    -0.0099    -0.4830 O.2     
  13 O13            3.3595    -2.3146     2.9408 O.2     
  14 O14            4.0540    -3.5570     0.8753 O.2     
  15 N15            1.9017    -7.6746     2.8843 N.pl3   
  16 C16            2.7167    -8.3681     2.0299 C.2     
  17 C17            1.9677    -8.2907     4.0939 C.2     
  18 N18            2.7713    -9.3131     4.0029 N.2     
  19 C19            3.2514    -9.3918     2.7452 C.2     
  20 C20            4.1960   -10.4150     2.2333 C.ar    
  21 C21            4.6701   -11.4162     3.0810 C.ar    
  22 C22            4.6082   -10.3825     0.9029 C.ar    
  23 C23            5.4867   -11.3369     0.4312 C.ar    
  24 C24            5.9588   -12.3255     1.2773 C.ar    
  25 C25            5.5488   -12.3661     2.5990 C.ar    
  26 C26            1.2320    -7.8619     5.3373 C.3     
  27 C27            2.1171    -6.9602     6.1588 C.ar    
  28 C28            2.1386    -5.6003     5.9071 C.ar    
  29 C29            2.9006    -7.4949     7.1655 C.ar    
  30 C30            3.7130    -6.6738     7.9210 C.ar    
  31 C31            3.7429    -5.3039     7.6680 C.ar    
  32 C32            2.9472    -4.7699     6.6564 C.ar    
  33 C33            4.6143    -4.4161     8.4770 C.ar    
  34 C34            4.6438    -3.0469     8.2236 C.ar    
  35 C35            5.4012    -4.9491     9.4959 C.ar    
  36 C36            6.2112    -4.1211    10.2473 C.ar    
  37 C37            6.2444    -2.7632     9.9918 C.ar    
  38 C38            5.4592    -2.2234     8.9821 C.ar    
  39 Cl39           4.1570   -11.4675     4.7386 Cl      
  40 Cl40           7.0636   -13.5226     0.6772 Cl      
  41 O41            5.4949    -0.8877     8.7342 O.3     
  42 C42            6.4223    -0.1112     9.4952 C.3     
  43 C43            7.8381    -0.6475     9.2748 C.3     
  44 C44            6.3544     1.3496     9.0451 C.3     
  45 C45            6.0671    -0.2042    10.9805 C.3     
  46 H46           -2.0545    -5.4494     2.5508 H       
  47 H47           -0.7236    -7.4427     3.1036 H       
  48 H48            2.8444    -5.3795     1.9701 H       
  49 H49           -0.9468    -3.4179     1.7152 H       
  50 H50            0.7181    -2.4809    -0.4553 H       
  51 H51            0.2244    -1.6079     1.0091 H       
  52 H52            4.0604    -0.6155     0.6345 H       
  53 H53            2.8986    -8.1449     0.9890 H       
  54 H54            4.2405    -9.6120     0.2414 H       
  55 H55            5.8063   -11.3124    -0.6001 H       
  56 H56            5.9200   -13.1395     3.2551 H       
  57 H57            0.3264    -7.3243     5.0565 H       
  58 H58            0.9655    -8.7414     5.9233 H       
  59 H59            1.5217    -5.1875     5.1226 H       
  60 H60            2.8764    -8.5568     7.3610 H       
  61 H61            4.3242    -7.0922     8.7070 H       
  62 H62            2.9668    -3.7089     6.4559 H       
  63 H63            4.0326    -2.6284     7.4376 H       
  64 H64            5.3771    -6.0097     9.6982 H       
  65 H65            6.8203    -4.5355    11.0370 H       
  66 H66            6.8797    -2.1196    10.5822 H       
  67 H67            8.1915    -0.3458     8.2888 H       
  68 H68            8.5027    -0.2433    10.0383 H       
  69 H69            7.8288    -1.7355     9.3402 H       
  70 H70            5.3457     1.7316     9.2022 H       
  71 H71            7.0618     1.9418     9.6256 H       
  72 H72            6.6074     1.4158     7.9870 H       
  73 H73            5.7499    -1.2202    11.2153 H       
  74 H74            6.9411     0.0511    11.5797 H       
  75 H75            5.2575     0.4903    11.2047 H       
@<TRIPOS>BOND
   1    1    2 ar
   2    1    6 ar
   3    1   46 1
   4    2    3 ar
   5    2   47 1
   6    3    4 ar
   7    3   15 1
   8    4    5 ar
   9    4   48 1
  10    5    6 ar
  11    5    7 1
  12    6   49 1
  13    7    8 1
  14    7   11 am
  15    8    9 1
  16    8   50 1
  17    8   51 1
  18    9   10 am
  19    9   12 2
  20   10   11 am
  21   10   52 1
  22   11   13 2
  23   11   14 2
  24   15   16 1
  25   15   17 1
  26   16   19 2
  27   16   53 1
  28   17   18 2
  29   17   26 1
  30   18   19 1
  31   19   20 1
  32   20   21 ar
  33   20   22 ar
  34   21   39 1
  35   21   25 ar
  36   22   23 ar
  37   22   54 1
  38   23   24 ar
  39   23   55 1
  40   24   25 ar
  41   24   40 1
  42   25   56 1
  43   26   27 1
  44   26   57 1
  45   26   58 1
  46   27   28 ar
  47   27   29 ar
  48   28   32 ar
  49   28   59 1
  50   29   30 ar
  51   29   60 1
  52   30   31 ar
  53   30   61 1
  54   31   32 ar
  55   31   33 1
  56   32   62 1
  57   33   34 ar
  58   33   35 ar
  59   34   38 ar
  60   34   63 1
  61   35   36 ar
  62   35   64 1
  63   36   37 ar
  64   36   65 1
  65   37   38 ar
  66   37   66 1
  67   38   41 1
  68   41   42 1
  69   42   43 1
  70   42   44 1
  71   42   45 1
  72   43   67 1
  73   43   68 1
  74   43   69 1
  75   44   70 1
  76   44   71 1
  77   44   72 1
  78   45   73 1
  79   45   74 1
  80   45   75 1

#	End of record

