#	Name: ASD01901593
#	Creating user name:	WinNT
#	Creation time:	15. 06. 2019 19:54

#	Modifying user name:	WinNT
#	Modification time:	15. 06. 2019 19:54

#	Program:	/corina/corina34_cracker 3.40 0067  02.08.2006

@<TRIPOS>MOLECULE
ASD01901593
  59   63    0    0    0
SMALL
NO_CHARGES


@<TRIPOS>ATOM
   1 C1            -0.0187     1.5258     0.0104 C.3     
   2 C2             0.0021    -0.0041     0.0020 C.3     
   3 N3            -1.3725    -0.5112     0.0124 N.pl3   
   4 N4            -2.1314    -0.8062     1.1552 N.2     
   5 C5            -3.3144    -1.2144     0.7662 C.2     
   6 C6            -3.3467    -1.2000    -0.6280 C.2     
   7 C7            -2.1306    -0.7813    -1.0611 C.2     
   8 C8            -1.7554    -0.6884    -2.5197 C.3     
   9 C9            -2.6713    -1.6589    -3.2807 C.3     
  10 C10           -4.1299    -1.3270    -2.9834 C.3     
  11 C11           -4.5056    -1.5631    -1.5246 C.3     
  12 C12           -5.6797    -0.6265    -1.1852 C.3     
  13 C13           -6.2223    -0.9842     0.1732 C.2     
  14 O14           -6.6362    -0.1193     0.9140 O.2     
  15 N15           -6.2453    -2.2732     0.5603 N.am    
  16 C16           -5.7001    -3.2303    -0.2053 C.2     
  17 O17           -5.8906    -4.3978     0.0738 O.2     
  18 N18           -4.9195    -2.9378    -1.2661 N.am    
  19 C19           -4.5096    -4.0419    -2.1356 C.3     
  20 C20           -6.8551    -2.6197     1.7748 C.ar    
  21 C21           -6.1073    -2.6329     2.9478 C.ar    
  22 F22           -4.7954    -2.3115     2.9153 F       
  23 C23           -6.7039    -2.9734     4.1446 C.ar    
  24 C24           -8.0614    -3.3053     4.1774 C.ar    
  25 C25           -8.8096    -3.2910     2.9967 C.ar    
  26 C26           -8.2076    -2.9440     1.8045 C.ar    
  27 F27           -8.9313    -2.9246     0.6638 F       
  28 C28           -8.6839    -3.6596     5.4173 C.1     
  29 C29           -9.1943    -3.9501     6.4339 C.1     
  30 C30           -9.8168    -4.3044     7.6739 C.ar    
  31 C31           -9.0716    -4.3141     8.8561 C.ar    
  32 C32           -9.6781    -4.6559    10.0467 C.ar    
  33 C33          -11.0210    -4.9888    10.0724 C.ar    
  34 C34          -11.7653    -4.9814     8.9058 C.ar    
  35 C35          -11.1737    -4.6366     7.7086 C.ar    
  36 H36            1.0039     1.9031     0.0027 H       
  37 H37           -0.5459     1.8868    -0.8726 H       
  38 H38           -0.5289     1.8773     0.9072 H       
  39 H39            0.5123    -0.3556    -0.8948 H       
  40 H40            0.5293    -0.3651     0.8851 H       
  41 H41           -4.1216    -1.5113     1.4183 H       
  42 H42           -1.9137     0.3256    -2.8798 H       
  43 H43           -0.7177    -0.9823    -2.6586 H       
  44 H44           -2.4856    -1.5506    -4.3533 H       
  45 H45           -2.4336    -2.6772    -2.9839 H       
  46 H46           -4.2941    -0.2614    -3.2147 H       
  47 H47           -4.7850    -1.8956    -3.6450 H       
  48 H48           -5.3223     0.4017    -1.1816 H       
  49 H49           -6.4571    -0.7465    -1.9376 H       
  50 H50           -3.5699    -4.4596    -1.7740 H       
  51 H51           -5.2778    -4.8151    -2.1277 H       
  52 H52           -4.3757    -3.6731    -3.1526 H       
  53 H53           -6.1227    -2.9837     5.0549 H       
  54 H54           -9.8586    -3.5473     3.0183 H       
  55 H55           -8.0233    -4.0549     8.8374 H       
  56 H56           -9.1034    -4.6642    10.9610 H       
  57 H57          -11.4905    -5.2560    11.0076 H       
  58 H58          -12.8129    -5.2423     8.9336 H       
  59 H59          -11.7569    -4.6269     6.7996 H       
@<TRIPOS>BOND
   1    1    2 1
   2    1   36 1
   3    1   37 1
   4    1   38 1
   5    2    3 1
   6    2   39 1
   7    2   40 1
   8    3    7 1
   9    3    4 1
  10    4    5 2
  11    5    6 1
  12    5   41 1
  13    6   11 1
  14    6    7 2
  15    7    8 1
  16    8    9 1
  17    8   42 1
  18    8   43 1
  19    9   10 1
  20    9   44 1
  21    9   45 1
  22   10   11 1
  23   10   46 1
  24   10   47 1
  25   11   18 1
  26   11   12 1
  27   12   13 1
  28   12   48 1
  29   12   49 1
  30   13   14 2
  31   13   15 am
  32   15   16 am
  33   15   20 1
  34   16   17 2
  35   16   18 am
  36   18   19 1
  37   19   50 1
  38   19   51 1
  39   19   52 1
  40   20   26 ar
  41   20   21 ar
  42   21   22 1
  43   21   23 ar
  44   23   24 ar
  45   23   53 1
  46   24   25 ar
  47   24   28 1
  48   25   26 ar
  49   25   54 1
  50   26   27 1
  51   28   29 3
  52   29   30 1
  53   30   35 ar
  54   30   31 ar
  55   31   32 ar
  56   31   55 1
  57   32   33 ar
  58   32   56 1
  59   33   34 ar
  60   33   57 1
  61   34   35 ar
  62   34   58 1
  63   35   59 1

#	End of record

