#	Name: ASD03080217
#	Creating user name:	WinNT
#	Creation time:	15. 06. 2019 20:26

#	Modifying user name:	WinNT
#	Modification time:	15. 06. 2019 20:26

#	Program:	/corina/corina34_cracker 3.40 0067  02.08.2006

@<TRIPOS>MOLECULE
ASD03080217
  34   35    0    0    0
SMALL
NO_CHARGES


@<TRIPOS>ATOM
   1 C1            -0.0166     1.3756     0.0096 C.ar    
   2 C2             0.0021    -0.0041     0.0020 C.ar    
   3 C3             1.2076    -0.6824    -0.0131 C.ar    
   4 C4             2.4019     0.0166    -0.0208 C.ar    
   5 C5             2.3972     1.3959    -0.0129 C.ar    
   6 C6             1.1842     2.0866     0.0020 C.ar    
   7 C7             1.1716     3.5650     0.0095 C.2     
   8 O8             2.2191     4.1817     0.0028 O.2     
   9 N9            -0.0012     4.2289     0.0238 N.am    
  10 C10           -0.0136     5.6938     0.0313 C.3     
  11 N11            3.6870    -0.7174    -0.0370 N.pl3   
  12 O12            3.6927    -1.9354    -0.0436 O.2     
  13 O13            4.7390    -0.1034    -0.0437 O.2     
  14 C14           -1.3110     6.1882    -0.5545 C.ar    
  15 C15            0.1212     6.1977     1.4697 C.3     
  16 C16           -2.4964     5.5458    -0.2494 C.ar    
  17 C17           -1.3165     7.2875    -1.3926 C.ar    
  18 C18           -2.5067     7.7410    -1.9300 C.ar    
  19 C19           -3.6913     7.0948    -1.6298 C.ar    
  20 C20           -3.6866     5.9993    -0.7868 C.ar    
  21 H21           -0.9585     1.9040     0.0169 H       
  22 H22           -0.9265    -0.5556     0.0083 H       
  23 H23            1.2168    -1.7624    -0.0187 H       
  24 H24            3.3299     1.9403    -0.0181 H       
  25 H25           -0.8370     3.7368     0.0292 H       
  26 H26            0.8196     6.0673    -0.5640 H       
  27 H27           -0.7119     5.8242     2.0651 H       
  28 H28            1.0597     5.8401     1.8935 H       
  29 H29            0.1120     7.2876     1.4753 H       
  30 H30           -2.4926     4.6894     0.4086 H       
  31 H31           -0.3911     7.7923    -1.6272 H       
  32 H32           -2.5111     8.6003    -2.5843 H       
  33 H33           -4.6211     7.4493    -2.0494 H       
  34 H34           -4.6126     5.4972    -0.5486 H       
@<TRIPOS>BOND
   1    1    2 ar
   2    1    6 ar
   3    1   21 1
   4    2    3 ar
   5    2   22 1
   6    3    4 ar
   7    3   23 1
   8    4    5 ar
   9    4   11 1
  10    5    6 ar
  11    5   24 1
  12    6    7 1
  13    7    8 2
  14    7    9 am
  15    9   10 1
  16    9   25 1
  17   10   14 1
  18   10   15 1
  19   10   26 1
  20   11   12 2
  21   11   13 2
  22   14   17 ar
  23   14   16 ar
  24   15   27 1
  25   15   28 1
  26   15   29 1
  27   16   20 ar
  28   16   30 1
  29   17   18 ar
  30   17   31 1
  31   18   19 ar
  32   18   32 1
  33   19   20 ar
  34   19   33 1
  35   20   34 1

#	End of record

