#	Name: ASD03731295
#	Creating user name:	WinNT
#	Creation time:	15. 06. 2019 20:45

#	Modifying user name:	WinNT
#	Modification time:	15. 06. 2019 20:45

#	Program:	/corina/corina34_cracker 3.40 0067  02.08.2006

@<TRIPOS>MOLECULE
ASD03731295
  59   63    0    0    0
SMALL
NO_CHARGES


@<TRIPOS>ATOM
   1 C1            -0.0184     1.5028     0.0103 C.2     
   2 N2             1.4712    -1.9592    -0.0225 N.am    
   3 C3             1.4513    -0.4944    -0.0145 C.3     
   4 C4             0.0021    -0.0041     0.0020 C.3     
   5 O5             1.0197     2.1211     0.0037 O.2     
   6 O6            -1.1898     2.1580     0.0194 O.3     
   7 C7             2.6473    -2.6171    -0.0373 C.2     
   8 O8             3.6919    -1.9949    -0.0439 O.2     
   9 N9             2.6656    -3.9648    -0.0447 N.am    
  10 C10            3.9441    -4.6799    -0.0607 C.3     
  11 C11            3.6850    -6.1878    -0.0664 C.3     
  12 O12           10.3529    -4.4903     2.0189 O.3     
  13 C13           11.7395    -4.8046     2.2462 C.3     
  14 O14           11.7060    -6.1502     2.7574 O.3     
  15 C15           10.5732    -6.7101     2.2398 C.ar    
  16 C16            9.7411    -5.6889     1.7868 C.ar    
  17 C17           10.1786    -8.0301     2.1157 C.ar    
  18 C18            8.9516    -8.3483     1.5413 C.ar    
  19 C19            8.1254    -7.3191     1.1000 C.ar    
  20 C20            8.5186    -6.0022     1.2168 C.ar    
  21 O21            8.3867    -9.5682     1.3114 O.3     
  22 C22            6.8789    -7.9701     0.5632 C.3     
  23 C23            6.9709    -9.4043     1.1016 C.3     
  24 N24            4.9634    -6.9029    -0.0824 N.am    
  25 C25            5.6306    -7.2767     1.0277 C.2     
  26 C26            6.8178    -7.9376    -0.9352 C.ar    
  27 C27            7.6478    -8.4012    -1.9314 C.ar    
  28 C28            7.3076    -8.2145    -3.2594 C.ar    
  29 C29            6.1327    -7.5608    -3.5837 C.ar    
  30 C30            5.2986    -7.0939    -2.5894 C.ar    
  31 C31            5.6328    -7.2777    -1.2499 C.ar    
  32 O32            5.2893    -7.0899     2.1765 O.2     
  33 C33           -1.1335     3.6089     0.0270 C.3     
  34 C34           -2.5551     4.1744     0.0369 C.3     
  35 H35            0.6378    -2.4556    -0.0172 H       
  36 H36            1.9686    -0.1289     0.8726 H       
  37 H37            1.9516    -0.1193    -0.9073 H       
  38 H38           -0.4983    -0.3791     0.8948 H       
  39 H39           -0.5153    -0.3696    -0.8850 H       
  40 H40            1.8323    -4.4611    -0.0394 H       
  41 H41            4.5035    -4.4041    -0.9546 H       
  42 H42            4.5205    -4.4136     0.8252 H       
  43 H43            3.1255    -6.4637     0.8275 H       
  44 H44            3.1085    -6.4541    -0.9523 H       
  45 H45           12.2995    -4.7637     1.3120 H       
  46 H46           12.1703    -4.1259     2.9822 H       
  47 H47           10.8271    -8.8191     2.4669 H       
  48 H48            7.8712    -5.2134     0.8631 H       
  49 H49            6.6035   -10.1187     0.3649 H       
  50 H50            6.4266    -9.5009     2.0410 H       
  51 H51            8.5648    -8.9112    -1.6759 H       
  52 H52            7.9579    -8.5787    -4.0411 H       
  53 H53            5.8673    -7.4150    -4.6204 H       
  54 H54            4.3831    -6.5839    -2.8505 H       
  55 H55           -0.6017     3.9472     0.9164 H       
  56 H56           -0.6102     3.9569    -0.8636 H       
  57 H57           -3.0869     3.8361    -0.8525 H       
  58 H58           -3.0784     3.8265     0.9275 H       
  59 H59           -2.5128     5.2636     0.0426 H       
@<TRIPOS>BOND
   1    1    4 1
   2    1    5 2
   3    1    6 1
   4    2    3 1
   5    2    7 am
   6    2   35 1
   7    3    4 1
   8    3   36 1
   9    3   37 1
  10    4   38 1
  11    4   39 1
  12    6   33 1
  13    7    8 2
  14    7    9 am
  15    9   10 1
  16    9   40 1
  17   10   11 1
  18   10   41 1
  19   10   42 1
  20   11   24 1
  21   11   43 1
  22   11   44 1
  23   12   13 1
  24   12   16 1
  25   13   14 1
  26   13   45 1
  27   13   46 1
  28   14   15 1
  29   15   16 ar
  30   15   17 ar
  31   16   20 ar
  32   17   18 ar
  33   17   47 1
  34   18   19 ar
  35   18   21 1
  36   19   20 ar
  37   19   22 1
  38   20   48 1
  39   21   23 1
  40   22   23 1
  41   22   25 1
  42   22   26 1
  43   23   49 1
  44   23   50 1
  45   24   25 am
  46   24   31 1
  47   25   32 2
  48   26   27 ar
  49   26   31 ar
  50   27   28 ar
  51   27   51 1
  52   28   29 ar
  53   28   52 1
  54   29   30 ar
  55   29   53 1
  56   30   31 ar
  57   30   54 1
  58   33   34 1
  59   33   55 1
  60   33   56 1
  61   34   57 1
  62   34   58 1
  63   34   59 1

#	End of record

