#	Name: ASD01885827
#	Creating user name:	WinNT
#	Creation time:	15. 06. 2019 19:50

#	Modifying user name:	WinNT
#	Modification time:	15. 06. 2019 19:50

#	Program:	/corina/corina34_cracker 3.40 0067  02.08.2006

@<TRIPOS>MOLECULE
ASD01885827
  51   54    0    0    0
SMALL
NO_CHARGES


@<TRIPOS>ATOM
   1 C1            -0.0160     1.3295     0.0094 C.ar    
   2 C2            -1.2534     2.0214     0.0189 C.ar    
   3 C3            -2.4928     1.2415     0.0209 C.ar    
   4 C4            -2.3731    -0.1484     0.0133 C.ar    
   5 C5            -1.1024    -0.7262     0.0042 C.ar    
   6 N6             0.0021    -0.0041     0.0020 N.ar    
   7 C7             1.1280     3.4327     0.0093 C.ar    
   8 C8            -0.0906     4.1065     0.0248 C.ar    
   9 C9            -1.2691     3.4193     0.0266 C.ar    
  10 C10           -3.8100     1.8968     0.0311 C.2     
  11 C11           -0.9896    -2.2046    -0.0040 C.2     
  12 C12            2.4115     4.2224     0.0082 C.3     
  13 N13            2.8384     4.4649     1.3928 N.3     
  14 C14            1.1790     2.0723     0.0019 C.ar    
  15 N15            0.2254    -2.7877    -0.0134 N.am    
  16 O16           -1.9926    -2.8904    -0.0022 O.2     
  17 C17            4.1985     5.0213     1.4350 C.3     
  18 C18            4.5796     5.3137     2.8887 C.3     
  19 O19            4.4613     4.1138     3.6578 O.3     
  20 C20            3.1493     3.5451     3.6394 C.3     
  21 C21            2.7537     3.2347     2.1933 C.3     
  22 C22           -4.8402     1.6263    -0.8032 C.2     
  23 N23           -5.9137     2.3522    -0.5885 N.2     
  24 C24           -5.8575     3.2217     0.3766 C.2     
  25 S25           -4.3274     3.1671     1.1368 S.3     
  26 C26            3.1407     2.2537     4.4598 C.3     
  27 C27            6.0230     5.8178     2.9470 C.3     
  28 F28            6.1389     6.9888     2.1903 F       
  29 F29            6.3704     6.0848     4.2756 F       
  30 F30            6.8794     4.8407     2.4283 F       
  31 N31           -6.8896     4.0654     0.7398 N.pl3   
  32 H32           -3.2552    -0.7715     0.0147 H       
  33 H33           -0.1028     5.1863     0.0359 H       
  34 H34           -2.2085     3.9520     0.0335 H       
  35 H35            3.1837     3.6601    -0.5169 H       
  36 H36            2.2510     5.1760    -0.4948 H       
  37 H37            2.1326     1.5654    -0.0092 H       
  38 H38            1.0261    -2.2402    -0.0148 H       
  39 H39            0.2992    -3.7549    -0.0187 H       
  40 H40            4.8996     4.3013     1.0127 H       
  41 H41            4.2320     5.9449     0.8571 H       
  42 H42            3.9114     6.0734     3.2943 H       
  43 H43            2.4395     4.2533     4.0668 H       
  44 H44            1.7326     2.8542     2.1689 H       
  45 H45            3.4317     2.4862     1.7832 H       
  46 H46           -4.7845     0.8779    -1.5798 H       
  47 H47            3.4261     2.4747     5.4883 H       
  48 H48            2.1404     1.8207     4.4453 H       
  49 H49            3.8493     1.5456     4.0302 H       
  50 H50           -7.7330     4.0338     0.2616 H       
  51 H51           -6.7709     4.6892     1.4730 H       
@<TRIPOS>BOND
   1    1    6 ar
   2    1   14 ar
   3    1    2 ar
   4    2    3 ar
   5    2    9 ar
   6    3   10 1
   7    3    4 ar
   8    4    5 ar
   9    4   32 1
  10    5   11 1
  11    5    6 ar
  12    7   12 1
  13    7    8 ar
  14    7   14 ar
  15    8    9 ar
  16    8   33 1
  17    9   34 1
  18   10   22 2
  19   10   25 1
  20   11   15 am
  21   11   16 2
  22   12   13 1
  23   12   35 1
  24   12   36 1
  25   13   17 1
  26   13   21 1
  27   14   37 1
  28   15   38 1
  29   15   39 1
  30   17   18 1
  31   17   40 1
  32   17   41 1
  33   18   19 1
  34   18   27 1
  35   18   42 1
  36   19   20 1
  37   20   21 1
  38   20   26 1
  39   20   43 1
  40   21   44 1
  41   21   45 1
  42   22   23 1
  43   22   46 1
  44   23   24 2
  45   24   25 1
  46   24   31 1
  47   26   47 1
  48   26   48 1
  49   26   49 1
  50   27   28 1
  51   27   29 1
  52   27   30 1
  53   31   50 1
  54   31   51 1

#	End of record

