#	Name: ASD01180102
#	Creating user name:	WinNT
#	Creation time:	15. 06. 2019 19:06

#	Modifying user name:	WinNT
#	Modification time:	15. 06. 2019 19:06

#	Program:	/corina/corina34_cracker 3.40 0067  02.08.2006

@<TRIPOS>MOLECULE
ASD01180102
  42   44    0    0    0
SMALL
NO_CHARGES


@<TRIPOS>ATOM
   1 C1            -0.0167     1.3796     0.0096 C.ar    
   2 C2             0.0021    -0.0041     0.0020 C.ar    
   3 C3             1.2058    -0.6864    -0.0131 C.ar    
   4 C4             2.3967     0.0093    -0.0203 C.ar    
   5 C5             2.3856     1.4065    -0.0127 C.ar    
   6 C6             1.1662     2.0887     0.0021 C.ar    
   7 C7             3.6541     2.1572    -0.0202 C.2     
   8 C8             3.6397     3.4994    -0.0129 C.2     
   9 C9             4.9083     4.2502    -0.0205 C.ar    
  10 C10            4.8958     5.6452    -0.0129 C.ar    
  11 C11            6.0978     6.3455    -0.0201 C.ar    
  12 C12            7.3072     5.6509    -0.0350 C.ar    
  13 C13            7.3151     4.2693    -0.0429 C.ar    
  14 C14            6.1278     3.5663    -0.0295 C.ar    
  15 C15            6.0932     7.8287    -0.0126 C.ar    
  16 C16            7.2941     8.5426    -0.0198 C.ar    
  17 C17            7.2353     9.9250    -0.0123 C.ar    
  18 N18            6.0530    10.5210     0.0014 N.ar    
  19 C19            4.9373     9.8185     0.0079 C.ar    
  20 N20            4.9444     8.5021    -0.0044 N.ar    
  21 S21            3.3926    10.6659     0.0261 S.o     
  22 C22            3.0189    10.8711    -1.7371 C.3     
  23 O23            2.5083     9.7065     0.5892 O.2     
  24 C24            8.5014    10.7423    -0.0190 C.3     
  25 F25            8.8818    11.0020    -1.3401 F       
  26 F26            8.2794    11.9516     0.6486 F       
  27 F27            9.5183    10.0322     0.6281 F       
  28 H28           -0.9600     1.9055     0.0169 H       
  29 H29           -0.9273    -0.5541     0.0083 H       
  30 H30            1.2128    -1.7664    -0.0190 H       
  31 H31            3.3355    -0.5246    -0.0314 H       
  32 H32            1.1501     3.1686     0.0077 H       
  33 H33            4.5951     1.6273    -0.0317 H       
  34 H34            2.6987     4.0293    -0.0014 H       
  35 H35            3.9570     6.1792    -0.0017 H       
  36 H36            8.2403     6.1946    -0.0406 H       
  37 H37            8.2548     3.7371    -0.0548 H       
  38 H38            6.1404     2.4864    -0.0358 H       
  39 H39            8.2439     8.0287    -0.0306 H       
  40 H40            2.9539     9.8917    -2.2111 H       
  41 H41            2.0682    11.3926    -1.8487 H       
  42 H42            3.8099    11.4523    -2.2109 H       
@<TRIPOS>BOND
   1    1    2 ar
   2    1    6 ar
   3    1   28 1
   4    2    3 ar
   5    2   29 1
   6    3    4 ar
   7    3   30 1
   8    4    5 ar
   9    4   31 1
  10    5    6 ar
  11    5    7 1
  12    6   32 1
  13    7    8 2
  14    7   33 1
  15    8    9 1
  16    8   34 1
  17    9   10 ar
  18    9   14 ar
  19   10   11 ar
  20   10   35 1
  21   11   12 ar
  22   11   15 1
  23   12   13 ar
  24   12   36 1
  25   13   14 ar
  26   13   37 1
  27   14   38 1
  28   15   16 ar
  29   15   20 ar
  30   16   17 ar
  31   16   39 1
  32   17   24 1
  33   17   18 ar
  34   18   19 ar
  35   19   20 ar
  36   19   21 1
  37   21   22 1
  38   21   23 2
  39   22   40 1
  40   22   41 1
  41   22   42 1
  42   24   25 1
  43   24   26 1
  44   24   27 1

#	End of record

