#	Name: ASD01910152
#	Creating user name:	WinNT
#	Creation time:	15. 06. 2019 19:55

#	Modifying user name:	WinNT
#	Modification time:	15. 06. 2019 19:55

#	Program:	/corina/corina34_cracker 3.40 0067  02.08.2006

@<TRIPOS>MOLECULE
ASD01910152
  44   46    0    0    0
SMALL
NO_CHARGES


@<TRIPOS>ATOM
   1 C1             0.0480     1.2919     0.1373 C.ar    
   2 C2            -1.0366     1.7117    -0.6126 C.ar    
   3 C3            -0.9440     2.8444    -1.4009 C.ar    
   4 C4             0.2337     3.5645    -1.4443 C.ar    
   5 C5             1.3324     3.1458    -0.6889 C.ar    
   6 C6             1.2305     2.0014     0.1040 C.ar    
   7 C7             2.5959     3.9103    -0.7298 C.2     
   8 N8             3.6535     3.5037     0.0000 N.am    
   9 C9             4.8777     4.1706    -0.1112 C.ar    
  10 C10            4.9053     5.5446    -0.3009 C.ar    
  11 C11            6.1222     6.2026    -0.4108 C.ar    
  12 C12            7.3084     5.4840    -0.3305 C.ar    
  13 C13            7.2775     4.1155    -0.1420 C.ar    
  14 C14            6.0680     3.4584    -0.0260 C.ar    
  15 N15            6.1544     7.5876    -0.6026 N.am    
  16 C16            7.1294     8.3241    -0.0340 C.2     
  17 C17            7.1063     9.7944    -0.1509 C.ar    
  18 C18            6.0760    10.4274    -0.8499 C.ar    
  19 C19            6.0603    11.8016    -0.9555 C.ar    
  20 C20            7.0624    12.5588    -0.3717 C.ar    
  21 C21            8.0870    11.9458     0.3223 C.ar    
  22 C22            8.1153    10.5648     0.4439 C.ar    
  23 O23            9.1209     9.9613     1.1256 O.3     
  24 C24           10.1200    10.8102     1.6943 C.3     
  25 O25            2.6816     4.9063    -1.4217 O.2     
  26 O26            8.0281     7.7767     0.5754 O.2     
  27 Cl27           0.3492     4.9854    -2.4350 Cl      
  28 H28           -0.0329     0.4088     0.7537 H       
  29 H29           -1.9597     1.1520    -0.5824 H       
  30 H30           -1.7942     3.1663    -1.9839 H       
  31 H31            2.0756     1.6725     0.6905 H       
  32 H32            3.5655     2.7485     0.6024 H       
  33 H33            3.9817     6.1010    -0.3633 H       
  34 H34            8.2558     5.9955    -0.4160 H       
  35 H35            8.2011     3.5591    -0.0802 H       
  36 H36            6.0472     2.3887     0.1213 H       
  37 H37            5.4750     8.0180    -1.1448 H       
  38 H38            5.2929     9.8409    -1.3073 H       
  39 H39            5.2631    12.2901    -1.4961 H       
  40 H40            7.0425    13.6350    -0.4600 H       
  41 H41            8.8648    12.5431     0.7747 H       
  42 H42           10.6046    11.3818     0.9027 H       
  43 H43            9.6546    11.4944     2.4037 H       
  44 H44           10.8629    10.2019     2.2101 H       
@<TRIPOS>BOND
   1    1    2 ar
   2    1    6 ar
   3    1   28 1
   4    2    3 ar
   5    2   29 1
   6    3    4 ar
   7    3   30 1
   8    4    5 ar
   9    4   27 1
  10    5    6 ar
  11    5    7 1
  12    6   31 1
  13    7    8 am
  14    7   25 2
  15    8    9 1
  16    8   32 1
  17    9   10 ar
  18    9   14 ar
  19   10   11 ar
  20   10   33 1
  21   11   12 ar
  22   11   15 1
  23   12   13 ar
  24   12   34 1
  25   13   14 ar
  26   13   35 1
  27   14   36 1
  28   15   16 am
  29   15   37 1
  30   16   17 1
  31   16   26 2
  32   17   18 ar
  33   17   22 ar
  34   18   19 ar
  35   18   38 1
  36   19   20 ar
  37   19   39 1
  38   20   21 ar
  39   20   40 1
  40   21   22 ar
  41   21   41 1
  42   22   23 1
  43   23   24 1
  44   24   42 1
  45   24   43 1
  46   24   44 1

#	End of record

