#	Name: ASD01870280
#	Creating user name:	WinNT
#	Creation time:	15. 06. 2019 19:38

#	Modifying user name:	WinNT
#	Modification time:	15. 06. 2019 19:38

#	Program:	/corina/corina34_cracker 3.40 0067  02.08.2006

@<TRIPOS>MOLECULE
ASD01870280
  37   39    0    0    0
SMALL
NO_CHARGES


@<TRIPOS>ATOM
   1 C1             0.2077     1.5127     1.6731 C.ar    
   2 N2             0.2394     0.2080     1.8691 N.ar    
   3 C3             1.3503    -0.4924     1.7389 C.ar    
   4 C4             2.5357     0.1189     1.3888 C.ar    
   5 C5             2.5481     1.5006     1.1714 C.ar    
   6 C6             1.3479     2.2035     1.3203 C.ar    
   7 C7             3.7985     2.2007     0.7940 C.2     
   8 N8             4.9503     1.5617     0.6402 N.2     
   9 C9             3.8429     3.5286     0.5780 C.2     
  10 S10            5.4976     3.9626     0.1552 S.3     
  11 C11            5.9801     2.2759     0.3086 C.2     
  12 N12            7.2631     1.7867     0.1037 N.am    
  13 C13            7.5352     0.3557     0.2605 C.3     
  14 C14            8.2583     2.6282    -0.2396 C.2     
  15 C15            9.6431     2.1256    -0.3586 C.ar    
  16 O16            8.0170     3.8007    -0.4513 O.2     
  17 C17            9.8815     0.8311    -0.8237 C.ar    
  18 C18           10.7186     2.9452    -0.0119 C.ar    
  19 C19           12.0087     2.4699    -0.1258 C.ar    
  20 C20           12.2378     1.1842    -0.5829 C.ar    
  21 C21           11.1765     0.3684    -0.9328 C.ar    
  22 C22           13.6498     0.6722    -0.7057 C.3     
  23 H23           -0.7246     2.0460     1.7861 H       
  24 H24            1.3308    -1.5587     1.9093 H       
  25 H25            3.4412    -0.4605     1.2844 H       
  26 H26            1.3147     3.2712     1.1614 H       
  27 H27            3.0084     4.2102     0.6509 H       
  28 H28            7.4190    -0.1437    -0.7014 H       
  29 H29            8.5544     0.2171     0.6211 H       
  30 H30            6.8346    -0.0708     0.9783 H       
  31 H31            9.0540     0.1933    -1.0972 H       
  32 H32           10.5412     3.9492     0.3444 H       
  33 H33           12.8417     3.1029     0.1421 H       
  34 H34           11.3623    -0.6329    -1.2925 H       
  35 H35           13.9469     0.1980     0.2297 H       
  36 H36           13.7032    -0.0558    -1.5152 H       
  37 H37           14.3206     1.5042    -0.9203 H       
@<TRIPOS>BOND
   1    1    2 ar
   2    1    6 ar
   3    1   23 1
   4    2    3 ar
   5    3    4 ar
   6    3   24 1
   7    4    5 ar
   8    4   25 1
   9    5    6 ar
  10    5    7 1
  11    6   26 1
  12    7    9 2
  13    7    8 1
  14    8   11 2
  15    9   10 1
  16    9   27 1
  17   10   11 1
  18   11   12 1
  19   12   13 1
  20   12   14 am
  21   13   28 1
  22   13   29 1
  23   13   30 1
  24   14   15 1
  25   14   16 2
  26   15   18 ar
  27   15   17 ar
  28   17   21 ar
  29   17   31 1
  30   18   19 ar
  31   18   32 1
  32   19   20 ar
  33   19   33 1
  34   20   21 ar
  35   20   22 1
  36   21   34 1
  37   22   35 1
  38   22   36 1
  39   22   37 1

#	End of record

