#	Name: ASD01914075
#	Creating user name:	WinNT
#	Creation time:	15. 06. 2019 20:02

#	Modifying user name:	WinNT
#	Modification time:	15. 06. 2019 20:02

#	Program:	/corina/corina34_cracker 3.40 0067  02.08.2006

@<TRIPOS>MOLECULE
ASD01914075
  45   47    0    0    0
SMALL
NO_CHARGES


@<TRIPOS>ATOM
   1 C1            -0.0167     1.3804     0.0096 C.ar    
   2 C2             0.0021    -0.0041     0.0020 C.ar    
   3 C3             2.4010     0.0296    -0.0208 C.ar    
   4 C4             2.3807     1.4165    -0.0131 C.ar    
   5 O5             3.5873    -0.6331    -0.0357 O.3     
   6 C6             3.5326    -2.0611    -0.0429 C.3     
   7 C7             4.9331    -2.6173    -0.0593 C.ar    
   8 N8             5.1120    -3.9244    -0.0681 N.ar    
   9 C9             6.3143    -4.4617    -0.0825 C.ar    
  10 C10            7.4522    -3.6545    -0.0886 C.ar    
  11 C11            7.2945    -2.2632    -0.0796 C.ar    
  12 C12            6.0101    -1.7489    -0.0706 C.ar    
  13 C13            8.8018    -4.2579    -0.1038 C.2     
  14 N14            8.9405    -5.5985    -0.1119 N.am    
  15 O15            9.7863    -3.5449    -0.1089 O.2     
  16 C16            1.2093    -0.6802    -0.0132 C.ar    
  17 C17           10.2779    -6.1964    -0.1270 C.3     
  18 F18           -1.1588    -0.6951     0.0099 F       
  19 C19            1.1721     2.0901     0.0021 C.ar    
  20 F20            1.1520     3.4410     0.0091 F       
  21 C21           10.2152    -7.6012     0.4761 C.3     
  22 C22           11.6119    -8.2256     0.4603 C.3     
  23 C23           12.1159    -8.3116    -0.9817 C.3     
  24 C24           12.1785    -6.9069    -1.5847 C.3     
  25 C25           10.7818    -6.2824    -1.5690 C.3     
  26 H26           -0.9595     1.9071     0.0170 H       
  27 H27            3.3079     1.9704    -0.0186 H       
  28 H28            3.0138    -2.4093     0.8502 H       
  29 H29            2.9968    -2.3997    -0.9297 H       
  30 H30            6.4203    -5.5365    -0.0893 H       
  31 H31            8.1533    -1.6083    -0.0839 H       
  32 H32            5.8499    -0.6809    -0.0635 H       
  33 H33            8.1549    -6.1674    -0.1078 H       
  34 H34            1.2237    -1.7601    -0.0188 H       
  35 H35           10.9584    -5.5792     0.4596 H       
  36 H36            9.8562    -7.5399     1.5034 H       
  37 H37            9.5347    -8.2183    -0.1105 H       
  38 H38           12.2925    -7.6085     1.0469 H       
  39 H39           11.5673    -9.2264     0.8899 H       
  40 H40           13.1109    -8.7565    -0.9929 H       
  41 H41           11.4353    -8.9288    -1.5683 H       
  42 H42           12.8591    -6.2897    -0.9982 H       
  43 H43           12.5376    -6.9682    -2.6121 H       
  44 H44           10.1013    -6.8996    -2.1555 H       
  45 H45           10.8264    -5.2816    -1.9986 H       
@<TRIPOS>BOND
   1    1    2 ar
   2    1   19 ar
   3    1   26 1
   4    2   16 ar
   5    2   18 1
   6    3    4 ar
   7    3    5 1
   8    3   16 ar
   9    4   19 ar
  10    4   27 1
  11    5    6 1
  12    6    7 1
  13    6   28 1
  14    6   29 1
  15    7    8 ar
  16    7   12 ar
  17    8    9 ar
  18    9   10 ar
  19    9   30 1
  20   10   11 ar
  21   10   13 1
  22   11   12 ar
  23   11   31 1
  24   12   32 1
  25   13   14 am
  26   13   15 2
  27   14   17 1
  28   14   33 1
  29   16   34 1
  30   17   21 1
  31   17   25 1
  32   17   35 1
  33   19   20 1
  34   21   22 1
  35   21   36 1
  36   21   37 1
  37   22   23 1
  38   22   38 1
  39   22   39 1
  40   23   24 1
  41   23   40 1
  42   23   41 1
  43   24   25 1
  44   24   42 1
  45   24   43 1
  46   25   44 1
  47   25   45 1

#	End of record

