#	Name: ASD01917531
#	Creating user name:	WinNT
#	Creation time:	15. 06. 2019 20:09

#	Modifying user name:	WinNT
#	Modification time:	15. 06. 2019 20:09

#	Program:	/corina/corina34_cracker 3.40 0067  02.08.2006

@<TRIPOS>MOLECULE
ASD01917531
  44   47    0    0    0
SMALL
NO_CHARGES


@<TRIPOS>ATOM
   1 C1            -0.0172     1.3945     0.0199 C.ar    
   2 C2            -0.1406     0.2154    -0.7211 C.ar    
   3 C3            -1.3302    -0.4899    -0.6989 C.ar    
   4 C4            -2.3950    -0.0312     0.0530 C.ar    
   5 C5            -2.2792     1.1375     0.7902 C.ar    
   6 C6            -1.0958     1.8487     0.7819 C.ar    
   7 C7             1.2500     2.1531     0.0017 C.2     
   8 O8             2.3116     1.5648     0.0718 O.2     
   9 N9             1.2294     3.4974    -0.0926 N.am    
  10 C10           -0.0367     4.2255    -0.2986 C.3     
  11 C11            0.2313     5.2935    -1.3324 C.2     
  12 N12            1.4665     5.6308    -1.7700 N.pl3   
  13 C13            2.7147     5.0074    -1.3214 C.3     
  14 C14            2.4680     4.2836     0.0128 C.3     
  15 C15           -0.6646     6.0671    -1.9741 C.2     
  16 C16            0.0431     6.9166    -2.8341 C.2     
  17 N17            1.3208     6.6555    -2.7089 N.2     
  18 C18           -0.5613     7.9527    -3.7464 C.3     
  19 O19           -1.9831     7.9417    -3.6038 O.3     
  20 C20           -2.6861     8.8232    -4.3624 C.ar    
  21 C21           -4.0699     8.8667    -4.2742 C.ar    
  22 C22           -4.7823     9.7637    -5.0465 C.ar    
  23 C23           -4.1172    10.6177    -5.9068 C.ar    
  24 C24           -2.7381    10.5760    -5.9968 C.ar    
  25 C25           -2.0207     9.6851    -5.2221 C.ar    
  26 F26           -3.3254     1.5786     1.5225 F       
  27 F27            0.8993    -0.2337    -1.4574 F       
  28 H28           -1.4272    -1.4009    -1.2707 H       
  29 H29           -3.3218    -0.5854     0.0662 H       
  30 H30           -1.0072     2.7586     1.3569 H       
  31 H31           -0.8043     3.5416    -0.6609 H       
  32 H32           -0.3579     4.6849     0.6362 H       
  33 H33            3.0532     4.2909    -2.0698 H       
  34 H34            3.4754     5.7755    -1.1816 H       
  35 H35            2.3729     5.0175     0.8131 H       
  36 H36            3.3044     3.6178     0.2259 H       
  37 H37           -1.7369     6.0375    -1.8487 H       
  38 H38           -0.1772     8.9379    -3.4820 H       
  39 H39           -0.2980     7.7252    -4.7793 H       
  40 H40           -4.5899     8.1996    -3.6027 H       
  41 H41           -5.8596     9.7977    -4.9785 H       
  42 H42           -4.6758    11.3182    -6.5097 H       
  43 H43           -2.2209    11.2436    -6.6701 H       
  44 H44           -0.9435     9.6529    -5.2928 H       
@<TRIPOS>BOND
   1    1    2 ar
   2    1    7 1
   3    1    6 ar
   4    2    3 ar
   5    2   27 1
   6    3    4 ar
   7    3   28 1
   8    4    5 ar
   9    4   29 1
  10    5    6 ar
  11    5   26 1
  12    6   30 1
  13    7    8 2
  14    7    9 am
  15    9   10 1
  16    9   14 1
  17   10   11 1
  18   10   31 1
  19   10   32 1
  20   11   12 1
  21   11   15 2
  22   12   13 1
  23   12   17 1
  24   13   14 1
  25   13   33 1
  26   13   34 1
  27   14   35 1
  28   14   36 1
  29   15   16 1
  30   15   37 1
  31   16   17 2
  32   16   18 1
  33   18   19 1
  34   18   38 1
  35   18   39 1
  36   19   20 1
  37   20   21 ar
  38   20   25 ar
  39   21   22 ar
  40   21   40 1
  41   22   23 ar
  42   22   41 1
  43   23   24 ar
  44   23   42 1
  45   24   25 ar
  46   24   43 1
  47   25   44 1

#	End of record

