#	Name: ASD09530010
#	Creating user name:	WinNT
#	Creation time:	15. 06. 2019 21:22

#	Modifying user name:	WinNT
#	Modification time:	15. 06. 2019 21:22

#	Program:	/corina/corina34_cracker 3.40 0067  02.08.2006

@<TRIPOS>MOLECULE
ASD09530010
  46   48    0    0    0
SMALL
NO_CHARGES


@<TRIPOS>ATOM
   1 N1            -1.1195     1.0007    -2.0373 N.am    
   2 C2            -0.7182    -0.2346    -1.7339 C.2     
   3 C3             0.6280    -0.5350    -1.1334 C.3     
   4 N4             1.4748     0.6624    -1.2400 N.am    
   5 C5             0.8525     1.9598    -0.9264 C.3     
   6 C6            -0.2910     2.1924    -1.9158 C.3     
   7 O7            -1.4736    -1.1581    -1.9518 O.2     
   8 C8             1.2803    -1.6931    -1.8912 C.3     
   9 C9             2.7681     0.5761    -1.6094 C.2     
  10 C10            3.5748     1.8302    -1.8275 C.3     
  11 C11            5.0003     1.4548    -2.2372 C.3     
  12 O12            3.2827    -0.5109    -1.7662 O.2     
  13 C13            5.7718     2.7048    -2.5741 C.ar    
  14 C14            5.8130     3.7547    -1.6759 C.ar    
  15 C15            6.5206     4.9013    -1.9850 C.ar    
  16 C16            7.1874     4.9977    -3.1920 C.ar    
  17 C17            7.1469     3.9474    -4.0898 C.ar    
  18 C18            6.4429     2.7991    -3.7789 C.ar    
  19 C19            5.6781     0.7379    -1.0980 C.ar    
  20 C20            6.2892    -0.4829    -1.3155 C.ar    
  21 C21            6.9108    -1.1405    -0.2705 C.ar    
  22 C22            6.9219    -0.5772     0.9918 C.ar    
  23 C23            6.3116     0.6440     1.2090 C.ar    
  24 C24            5.6937     1.3037     0.1631 C.ar    
  25 H25           -2.0253     1.1127    -2.3657 H       
  26 H26            0.5077    -0.8048    -0.0841 H       
  27 H27            0.4612     1.9437     0.0908 H       
  28 H28            1.5912     2.7553    -1.0244 H       
  29 H29            0.1245     2.4416    -2.8922 H       
  30 H30           -0.9051     3.0221    -1.5657 H       
  31 H31            1.5670    -1.3591    -2.8884 H       
  32 H32            2.1662    -2.0274    -1.3513 H       
  33 H33            0.5724    -2.5178    -1.9738 H       
  34 H34            3.1149     2.4254    -2.6163 H       
  35 H35            3.6026     2.4094    -0.9046 H       
  36 H36            4.9677     0.8018    -3.1094 H       
  37 H37            5.2921     3.6794    -0.7329 H       
  38 H38            6.5522     5.7219    -1.2835 H       
  39 H39            7.7396     5.8938    -3.4338 H       
  40 H40            7.6676     4.0229    -5.0330 H       
  41 H41            6.4144     1.9771    -4.4788 H       
  42 H42            6.2805    -0.9230    -2.3017 H       
  43 H43            7.3876    -2.0946    -0.4403 H       
  44 H44            7.4070    -1.0913     1.8083 H       
  45 H45            6.3200     1.0840     2.1953 H       
  46 H46            5.2201     2.2595     0.3320 H       
@<TRIPOS>BOND
   1    1    2 am
   2    1    6 1
   3    1   25 1
   4    2    3 1
   5    2    7 2
   6    3    4 1
   7    3    8 1
   8    3   26 1
   9    4    5 1
  10    4    9 am
  11    5    6 1
  12    5   27 1
  13    5   28 1
  14    6   29 1
  15    6   30 1
  16    8   31 1
  17    8   32 1
  18    8   33 1
  19    9   10 1
  20    9   12 2
  21   10   11 1
  22   10   34 1
  23   10   35 1
  24   11   13 1
  25   11   19 1
  26   11   36 1
  27   13   14 ar
  28   13   18 ar
  29   14   15 ar
  30   14   37 1
  31   15   16 ar
  32   15   38 1
  33   16   17 ar
  34   16   39 1
  35   17   18 ar
  36   17   40 1
  37   18   41 1
  38   19   20 ar
  39   19   24 ar
  40   20   21 ar
  41   20   42 1
  42   21   22 ar
  43   21   43 1
  44   22   23 ar
  45   22   44 1
  46   23   24 ar
  47   23   45 1
  48   24   46 1

#	End of record

