#	Name: ASD03740234
#	Creating user name:	WinNT
#	Creation time:	15. 06. 2019 20:46

#	Modifying user name:	WinNT
#	Modification time:	15. 06. 2019 20:46

#	Program:	/corina/corina34_cracker 3.40 0067  02.08.2006

@<TRIPOS>MOLECULE
ASD03740234
  60   62    0    0    0
SMALL
NO_CHARGES


@<TRIPOS>ATOM
   1 C1             1.9137    -1.3655    -2.8917 C.3     
   2 N2            -0.9437    -2.2789    -0.5813 N.am    
   3 O3            -2.8172    -3.3300    -0.0164 O.2     
   4 C4             1.0603    -2.2421    -1.9730 C.3     
   5 N5            -3.6202    -4.2033    -2.6654 N.am    
   6 O6            -4.0227    -4.5415    -4.8207 O.2     
   7 C7             1.8627    -2.6025    -0.7207 C.3     
   8 N8            -3.9716    -9.4949    -5.8078 N.am    
   9 O9            -3.5691    -9.1567    -3.6525 O.2     
  10 C10            1.0216    -3.5064     0.1836 C.3     
  11 O11           -5.2608   -11.0853    -7.6422 O.3     
  12 C12            1.8365    -3.8928     1.4195 C.3     
  13 C13           -0.2408    -2.7551     0.6178 C.3     
  14 C14           -0.2017    -1.4765    -1.5632 C.3     
  15 C15           -2.2430    -2.5773    -0.7794 C.2     
  16 C16           -2.9686    -1.9906    -1.9221 C.ar    
  17 C17           -2.9885    -0.6064    -2.1056 C.ar    
  18 C18           -3.6687    -0.0642    -3.1759 C.ar    
  19 C19           -4.3338    -0.8868    -4.0713 C.ar    
  20 C20           -4.3229    -2.2570    -3.9018 C.ar    
  21 C21           -3.6379    -2.8205    -2.8341 C.ar    
  22 C22           -3.7872    -5.0142    -3.7289 C.2     
  23 C23           -3.6814    -6.5081    -3.5615 C.3     
  24 C24           -3.9104    -7.1901    -4.9117 C.3     
  25 C25           -3.8046    -8.6841    -4.7443 C.2     
  26 C26           -3.8729   -10.9565    -5.6689 C.3     
  27 C27           -5.1127   -11.5881    -6.3122 C.3     
  28 C28           -5.4841    -9.6787    -7.7096 C.3     
  29 C29           -4.2641    -8.9450    -7.1410 C.3     
  30 Br30          -3.6944     1.8105    -3.4226 Br      
  31 H31            2.8129    -1.9096    -3.1807 H       
  32 H32            1.3418    -1.1090    -3.7834 H       
  33 H33            2.1945    -0.4532    -2.3653 H       
  34 H34            0.7783    -3.1541    -2.4993 H       
  35 H35           -3.4878    -4.5825    -1.7825 H       
  36 H36            2.7736    -3.1259    -1.0112 H       
  37 H37            2.1236    -1.6916    -0.1820 H       
  38 H38            0.7400    -4.4067    -0.3626 H       
  39 H39            2.1169    -2.9923     1.9660 H       
  40 H40            1.2371    -4.5366     2.0633 H       
  41 H41            2.7360    -4.4248     1.1099 H       
  42 H42            0.0362    -1.9047     1.2409 H       
  43 H43           -0.8903    -3.4262     1.1798 H       
  44 H44           -0.8255    -1.3040    -2.4403 H       
  45 H45            0.0785    -0.5218    -1.1180 H       
  46 H46           -2.4722     0.0387    -1.4101 H       
  47 H47           -4.8642    -0.4535    -4.9063 H       
  48 H48           -4.8441    -2.8914    -4.6034 H       
  49 H49           -2.6889    -6.7626    -3.1896 H       
  50 H50           -4.4341    -6.8482    -2.8503 H       
  51 H51           -4.9029    -6.9356    -5.2836 H       
  52 H52           -3.1577    -6.8500    -5.6229 H       
  53 H53           -2.9752   -11.3135    -6.1738 H       
  54 H54           -3.8312   -11.2229    -4.6128 H       
  55 H55           -5.9962   -11.3340    -5.7265 H       
  56 H56           -4.9949   -12.6713    -6.3434 H       
  57 H57           -5.6301    -9.3826    -8.7484 H       
  58 H58           -6.3704    -9.4225    -7.1292 H       
  59 H59           -4.4813    -7.8800    -7.0593 H       
  60 H60           -3.4065    -9.0960    -7.7966 H       
@<TRIPOS>BOND
   1    1    4 1
   2    1   31 1
   3    1   32 1
   4    1   33 1
   5    2   13 1
   6    2   14 1
   7    2   15 am
   8    3   15 2
   9    4    7 1
  10    4   14 1
  11    4   34 1
  12    5   21 1
  13    5   22 am
  14    5   35 1
  15    6   22 2
  16    7   10 1
  17    7   36 1
  18    7   37 1
  19    8   25 am
  20    8   26 1
  21    8   29 1
  22    9   25 2
  23   10   12 1
  24   10   13 1
  25   10   38 1
  26   11   27 1
  27   11   28 1
  28   12   39 1
  29   12   40 1
  30   12   41 1
  31   13   42 1
  32   13   43 1
  33   14   44 1
  34   14   45 1
  35   15   16 1
  36   16   17 ar
  37   16   21 ar
  38   17   18 ar
  39   17   46 1
  40   18   19 ar
  41   18   30 1
  42   19   20 ar
  43   19   47 1
  44   20   21 ar
  45   20   48 1
  46   22   23 1
  47   23   24 1
  48   23   49 1
  49   23   50 1
  50   24   25 1
  51   24   51 1
  52   24   52 1
  53   26   27 1
  54   26   53 1
  55   26   54 1
  56   27   55 1
  57   27   56 1
  58   28   29 1
  59   28   57 1
  60   28   58 1
  61   29   59 1
  62   29   60 1

#	End of record

