#	Name: ASD06660173
#	Creating user name:	WinNT
#	Creation time:	15. 06. 2019 21:08

#	Modifying user name:	WinNT
#	Modification time:	15. 06. 2019 21:08

#	Program:	/corina/corina34_cracker 3.40 0067  02.08.2006

@<TRIPOS>MOLECULE
ASD06660173
  86   89    0    0    0
SMALL
NO_CHARGES


@<TRIPOS>ATOM
   1 C1            -0.0184     1.5028     0.0103 C.2     
   2 C2             0.0021    -0.0041     0.0020 C.3     
   3 C3            -0.7241    -0.5171    -1.2431 C.3     
   4 O4             1.0197     2.1211     0.0037 O.2     
   5 O5            -1.1898     2.1580     0.0194 O.3     
   6 C6            -0.8113    -2.0207    -1.1900 C.ar    
   7 C7            -1.8983    -2.6278    -0.5884 C.ar    
   8 C8            -1.9814    -4.0054    -0.5380 C.ar    
   9 C9            -0.9713    -4.7813    -1.0925 C.ar    
  10 C10            0.1192    -4.1682    -1.6960 C.ar    
  11 C11            0.1932    -2.7901    -1.7480 C.ar    
  12 N12           -1.0519    -6.1748    -1.0428 N.3     
  13 C13            0.1154    -6.7927    -1.6847 C.3     
  14 C14           -0.0755    -8.3100    -1.7414 C.3     
  15 C15           -0.2456    -8.8516    -0.3193 C.3     
  16 C16           -1.4383    -8.1570     0.3437 C.3     
  17 C17           -1.2079    -6.6440     0.3399 C.3     
  18 C18           -0.4975   -10.3598    -0.3732 C.3     
  19 N19           -0.5413   -10.8966     0.9892 N.am    
  20 C20           -1.7525   -10.9546     1.6769 C.ar    
  21 C21           -2.9303   -10.5994     1.0289 C.ar    
  22 C22           -4.1254   -10.6615     1.7231 C.ar    
  23 C23           -4.1013   -11.0784     3.0473 C.ar    
  24 C24           -2.8950   -11.4162     3.6277 C.ar    
  25 N25           -1.7714   -11.3523     2.9391 N.ar    
  26 C26            0.5894   -11.3344     1.5776 C.2     
  27 O27            1.6450   -11.2839     0.9782 O.2     
  28 O28            0.5492   -11.8278     2.8297 O.3     
  29 C29            1.8051   -12.2809     3.4003 C.3     
  30 C30            2.7932   -11.1139     3.4499 C.3     
  31 C31            1.5621   -12.8039     4.8175 C.3     
  32 C32            2.3833   -13.4024     2.5349 C.3     
  33 N33            1.3897    -0.4735    -0.0138 N.am    
  34 C34            2.0717    -0.5994     1.1419 C.2     
  35 O35            1.5357    -0.3234     2.1969 O.2     
  36 O36            3.3470    -1.0308     1.1274 O.3     
  37 C37            4.0198    -1.1422     2.4093 C.3     
  38 C38            5.4276    -1.6362     2.1965 C.ar    
  39 C39            6.4544    -0.7326     1.9969 C.ar    
  40 C40            7.7457    -1.1857     1.8017 C.ar    
  41 C41            8.0102    -2.5425     1.8064 C.ar    
  42 C42            6.9835    -3.4462     2.0068 C.ar    
  43 C43            5.6929    -2.9928     2.2064 C.ar    
  44 C44           -1.1335     3.6089     0.0270 C.3     
  45 H45           -0.4983    -0.3791     0.8948 H       
  46 H46           -1.7288    -0.0959    -1.2772 H       
  47 H47           -0.1736    -0.2164    -2.1345 H       
  48 H48           -2.6831    -2.0240    -0.1572 H       
  49 H49           -2.8305    -4.4790    -0.0677 H       
  50 H50            0.9062    -4.7685    -2.1281 H       
  51 H51            1.0385    -2.3127    -2.2213 H       
  52 H52            0.2226    -6.4021    -2.6967 H       
  53 H53            1.0115    -6.5606    -1.1092 H       
  54 H54           -0.9638    -8.5434    -2.3284 H       
  55 H55            0.7981    -8.7697    -2.2037 H       
  56 H56            0.6581    -8.6527     0.2568 H       
  57 H57           -2.3480    -8.3879    -0.2105 H       
  58 H58           -1.5385    -8.5072     1.3710 H       
  59 H59           -0.3056    -6.4127     0.9059 H       
  60 H60           -2.0619    -6.1455     0.7984 H       
  61 H61           -1.4485   -10.5517    -0.8701 H       
  62 H62            0.3065   -10.8428    -0.9284 H       
  63 H63           -2.9124   -10.2791    -0.0024 H       
  64 H64           -5.0559   -10.3915     1.2460 H       
  65 H65           -5.0167   -11.1376     3.6174 H       
  66 H66           -2.8714   -11.7411     4.6575 H       
  67 H67            2.3813   -10.3149     4.0664 H       
  68 H68            3.7360   -11.4540     3.8783 H       
  69 H69            2.9664   -10.7413     2.4403 H       
  70 H70            0.8581   -13.6354     4.7822 H       
  71 H71            2.5049   -13.1441     5.2459 H       
  72 H72            1.1502   -12.0050     5.4340 H       
  73 H73            2.5564   -13.0298     1.5254 H       
  74 H74            3.3261   -13.7425     2.9633 H       
  75 H75            1.6793   -14.2338     2.4997 H       
  76 H76            1.8177    -0.6938    -0.8559 H       
  77 H77            4.0467    -0.1651     2.8916 H       
  78 H78            3.4799    -1.8456     3.0431 H       
  79 H79            6.2478     0.3275     1.9933 H       
  80 H80            8.5479    -0.4797     1.6451 H       
  81 H81            9.0189    -2.8966     1.6531 H       
  82 H82            7.1901    -4.5062     2.0102 H       
  83 H83            4.8913    -3.6987     2.3667 H       
  84 H84           -0.6102     3.9569    -0.8636 H       
  85 H85           -2.1463     4.0118     0.0340 H       
  86 H86           -0.6017     3.9472     0.9164 H       
@<TRIPOS>BOND
   1    1    2 1
   2    1    4 2
   3    1    5 1
   4    2    3 1
   5    2   33 1
   6    2   45 1
   7    3    6 1
   8    3   46 1
   9    3   47 1
  10    5   44 1
  11    6    7 ar
  12    6   11 ar
  13    7    8 ar
  14    7   48 1
  15    8    9 ar
  16    8   49 1
  17    9   10 ar
  18    9   12 1
  19   10   11 ar
  20   10   50 1
  21   11   51 1
  22   12   13 1
  23   12   17 1
  24   13   14 1
  25   13   52 1
  26   13   53 1
  27   14   15 1
  28   14   54 1
  29   14   55 1
  30   15   16 1
  31   15   18 1
  32   15   56 1
  33   16   17 1
  34   16   57 1
  35   16   58 1
  36   17   59 1
  37   17   60 1
  38   18   19 1
  39   18   61 1
  40   18   62 1
  41   19   20 1
  42   19   26 am
  43   20   21 ar
  44   20   25 ar
  45   21   22 ar
  46   21   63 1
  47   22   23 ar
  48   22   64 1
  49   23   24 ar
  50   23   65 1
  51   24   25 ar
  52   24   66 1
  53   26   27 2
  54   26   28 1
  55   28   29 1
  56   29   30 1
  57   29   32 1
  58   29   31 1
  59   30   67 1
  60   30   68 1
  61   30   69 1
  62   31   70 1
  63   31   71 1
  64   31   72 1
  65   32   73 1
  66   32   74 1
  67   32   75 1
  68   33   34 am
  69   33   76 1
  70   34   35 2
  71   34   36 1
  72   36   37 1
  73   37   38 1
  74   37   77 1
  75   37   78 1
  76   38   39 ar
  77   38   43 ar
  78   39   40 ar
  79   39   79 1
  80   40   41 ar
  81   40   80 1
  82   41   42 ar
  83   41   81 1
  84   42   43 ar
  85   42   82 1
  86   43   83 1
  87   44   84 1
  88   44   85 1
  89   44   86 1

#	End of record

