#	Name: ASD01911882
#	Creating user name:	WinNT
#	Creation time:	15. 06. 2019 19:58

#	Modifying user name:	WinNT
#	Modification time:	15. 06. 2019 19:58

#	Program:	/corina/corina34_cracker 3.40 0067  02.08.2006

@<TRIPOS>MOLECULE
ASD01911882
  39   41    0    0    0
SMALL
NO_CHARGES


@<TRIPOS>ATOM
   1 C1            -1.0604    -0.5026    -2.0835 C.ar    
   2 C2            -1.0562     0.0558    -0.8088 C.ar    
   3 C3            -1.0051     1.4360    -0.6782 C.ar    
   4 N4            -0.9614     2.2114    -1.7436 N.ar    
   5 C5            -0.9640     1.7143    -2.9648 C.ar    
   6 C6            -1.0130     0.3487    -3.1753 C.ar    
   7 O7            -1.1020    -0.7395     0.2922 O.3     
   8 C8            -1.1523    -2.0845     0.1060 C.ar    
   9 C9            -0.0017    -2.7819    -0.2364 C.ar    
  10 C10           -0.0516    -4.1495    -0.4266 C.ar    
  11 C11           -1.2460    -4.8276    -0.2763 C.ar    
  12 C12           -2.4005    -4.1351     0.0661 C.ar    
  13 C13           -2.3513    -2.7619     0.2632 C.ar    
  14 N14           -3.6095    -4.8213     0.2177 N.am    
  15 C15           -4.7718    -4.2168    -0.0988 C.2     
  16 C16           -6.0557    -4.9025     0.1589 C.ar    
  17 O17           -4.7642    -3.1076    -0.5961 O.2     
  18 C18           -7.2610    -4.2792    -0.1677 C.ar    
  19 C19           -8.4563    -4.9244     0.0746 C.ar    
  20 C20           -8.4625    -6.1865     0.6406 C.ar    
  21 C21           -7.2704    -6.8110     0.9677 C.ar    
  22 C22           -6.0675    -6.1787     0.7245 C.ar    
  23 Cl23          -7.2885    -8.3947     1.6787 Cl      
  24 C24           -1.0149    -0.2071    -4.5760 C.3     
  25 F25           -0.9623     0.8458    -5.4956 F       
  26 F26            0.0992    -1.0350    -4.7507 F       
  27 F27           -2.1835    -0.9482    -4.7821 F       
  28 H28           -1.0951    -1.5736    -2.2182 H       
  29 H29           -1.0013     1.8799     0.3064 H       
  30 H30           -0.9277     2.3830    -3.8121 H       
  31 H31            0.9334    -2.2547    -0.3546 H       
  32 H32            0.8448    -4.6895    -0.6936 H       
  33 H33           -1.2821    -5.8966    -0.4256 H       
  34 H34           -3.2474    -2.2211     0.5296 H       
  35 H35           -3.6117    -5.7324     0.5507 H       
  36 H36           -7.2581    -3.2935    -0.6091 H       
  37 H37           -9.3893    -4.4427    -0.1778 H       
  38 H38           -9.4009    -6.6869     0.8285 H       
  39 H39           -5.1383    -6.6662     0.9799 H       
@<TRIPOS>BOND
   1    1    2 ar
   2    1    6 ar
   3    1   28 1
   4    2    3 ar
   5    2    7 1
   6    3    4 ar
   7    3   29 1
   8    4    5 ar
   9    5    6 ar
  10    5   30 1
  11    6   24 1
  12    7    8 1
  13    8    9 ar
  14    8   13 ar
  15    9   10 ar
  16    9   31 1
  17   10   11 ar
  18   10   32 1
  19   11   12 ar
  20   11   33 1
  21   12   13 ar
  22   12   14 1
  23   13   34 1
  24   14   15 am
  25   14   35 1
  26   15   16 1
  27   15   17 2
  28   16   18 ar
  29   16   22 ar
  30   18   19 ar
  31   18   36 1
  32   19   20 ar
  33   19   37 1
  34   20   21 ar
  35   20   38 1
  36   21   22 ar
  37   21   23 1
  38   22   39 1
  39   24   25 1
  40   24   26 1
  41   24   27 1

#	End of record

