#	Name: ASD01209005
#	Creating user name:	WinNT
#	Creation time:	15. 06. 2019 19:10

#	Modifying user name:	WinNT
#	Modification time:	15. 06. 2019 19:10

#	Program:	/corina/corina34_cracker 3.40 0067  02.08.2006

@<TRIPOS>MOLECULE
ASD01209005
  59   63    0    0    0
SMALL
NO_CHARGES


@<TRIPOS>ATOM
   1 S1             0.2156     0.5047     0.5174 S.o2    
   2 C2            -4.1800    -3.5788    -4.2229 C.3     
   3 C3            -4.4891    -2.1502    -3.7645 C.3     
   4 C4            -5.7061    -1.6303    -4.5358 C.3     
   5 C5            -5.4206    -1.7096    -6.0378 C.3     
   6 C6            -3.9535    -3.5828    -5.7370 C.3     
   7 C7            -4.7944    -2.1485    -2.2653 C.3     
   8 C8            -4.9450    -0.7064    -1.7771 C.3     
   9 C9            -5.3592    -0.7072    -0.3282 C.2     
  10 O10           -4.6401    -0.2031     0.5084 O.2     
  11 N11           -3.3011     0.7865    -3.0129 N.2     
  12 C12           -2.0857     1.2627    -2.8113 C.ar    
  13 C13           -1.6382     0.7460    -1.5085 C.ar    
  14 C14           -2.6724    -0.0309    -1.0202 C.2     
  15 N15           -3.6657    -0.0067    -1.9189 N.pl3   
  16 N16           -6.5287    -1.2681     0.0381 N.am    
  17 C17           -1.2145     2.0978    -3.5425 C.ar    
  18 C18            0.0091     2.4038    -3.0309 C.ar    
  19 C19            0.4324     1.9101    -1.7897 C.ar    
  20 C20           -0.3561     1.1032    -1.0381 C.ar    
  21 C21           -6.9565    -1.1846     1.3591 C.2     
  22 S22           -8.4539    -1.8628     1.9924 S.3     
  23 C23           -8.0502    -1.2489     3.5943 C.2     
  24 C24           -6.8775    -0.6162     3.5160 C.2     
  25 N25           -6.3136    -0.5996     2.3226 N.2     
  26 O26           -5.1105    -3.0589    -6.3918 O.3     
  27 F27           -8.7990    -1.3933     4.7095 F       
  28 C28           -0.8983     1.2636     1.7315 C.3     
  29 C29           -0.5923     1.0319     3.2126 C.3     
  30 C30           -0.3411     2.4045     2.5851 C.3     
  31 O31            0.8419     3.2085    -3.7422 O.3     
  32 C32            0.3639     3.6854    -5.0017 C.3     
  33 O33            0.0016    -0.8986     0.4531 O.2     
  34 O34            1.5258     1.0412     0.6392 O.2     
  35 H35           -3.2821    -3.9367    -3.7193 H       
  36 H36           -5.0197    -4.2294    -3.9785 H       
  37 H37           -3.6301    -1.5095    -3.9638 H       
  38 H38           -6.5766    -2.2416    -4.2978 H       
  39 H39           -5.8995    -0.5948    -4.2560 H       
  40 H40           -6.2993    -1.3809    -6.5927 H       
  41 H41           -4.5750    -1.0664    -6.2815 H       
  42 H42           -3.0887    -2.9641    -5.9768 H       
  43 H43           -3.7753    -4.6035    -6.0752 H       
  44 H44           -5.7210    -2.6927    -2.0826 H       
  45 H45           -3.9779    -2.6307    -1.7277 H       
  46 H46           -5.7046    -0.1989    -2.3718 H       
  47 H47           -2.6782    -0.5635    -0.0808 H       
  48 H48           -7.0720    -1.7299    -0.6194 H       
  49 H49           -1.5164     2.4913    -4.5019 H       
  50 H50            1.4118     2.1790    -1.4226 H       
  51 H51           -6.4171    -0.1513     4.3753 H       
  52 H52           -1.9462     1.3203     1.4369 H       
  53 H53           -1.4389     0.9366     3.8925 H       
  54 H54            0.2783     0.4235     3.4574 H       
  55 H55            0.6948     2.6992     2.4172 H       
  56 H56           -1.0225     3.2123     2.8522 H       
  57 H57            0.1483     2.8383    -5.6528 H       
  58 H58           -0.5452     4.2669    -4.8487 H       
  59 H59            1.1243     4.3148    -5.4641 H       
@<TRIPOS>BOND
   1    1   33 2
   2    1   34 2
   3    1   20 1
   4    1   28 1
   5    2    3 1
   6    2    6 1
   7    2   35 1
   8    2   36 1
   9    3    4 1
  10    3    7 1
  11    3   37 1
  12    4    5 1
  13    4   38 1
  14    4   39 1
  15    5   26 1
  16    5   40 1
  17    5   41 1
  18    6   26 1
  19    6   42 1
  20    6   43 1
  21    7    8 1
  22    7   44 1
  23    7   45 1
  24    8    9 1
  25    8   15 1
  26    8   46 1
  27    9   10 2
  28    9   16 am
  29   11   12 2
  30   11   15 1
  31   12   13 ar
  32   12   17 ar
  33   13   14 2
  34   13   20 ar
  35   14   15 1
  36   14   47 1
  37   16   21 1
  38   16   48 1
  39   17   18 ar
  40   17   49 1
  41   18   19 ar
  42   18   31 1
  43   19   20 ar
  44   19   50 1
  45   21   22 1
  46   21   25 2
  47   22   23 1
  48   23   24 2
  49   23   27 1
  50   24   25 1
  51   24   51 1
  52   28   29 1
  53   28   30 1
  54   28   52 1
  55   29   30 1
  56   29   53 1
  57   29   54 1
  58   30   55 1
  59   30   56 1
  60   31   32 1
  61   32   57 1
  62   32   58 1
  63   32   59 1

#	End of record

