#	Name: ASD03090637
#	Creating user name:	WinNT
#	Creation time:	15. 06. 2019 20:29

#	Modifying user name:	WinNT
#	Modification time:	15. 06. 2019 20:29

#	Program:	/corina/corina34_cracker 3.40 0067  02.08.2006

@<TRIPOS>MOLECULE
ASD03090637
  40   41    0    0    0
SMALL
NO_CHARGES


@<TRIPOS>ATOM
   1 N1            -0.0162     1.3436     0.0094 N.am    
   2 C2             0.0350     0.1518     0.6367 C.2     
   3 O3             1.0947    -0.2670     1.0609 O.2     
   4 N4            -1.0886    -0.5758     0.7939 N.am    
   5 O5            -1.6741    -3.6159     2.2530 O.3     
   6 N6            -2.0350    -2.6213     1.6679 N.2     
   7 C7            -1.0356    -1.8091     1.4431 C.2     
   8 C8             0.1151    -2.4351     1.9920 C.2     
   9 C9            -0.3564    -3.5962     2.5004 C.2     
  10 C10            0.4430    -4.6598     3.2081 C.3     
  11 C11            1.1366     2.1388    -0.0813 C.ar    
  12 C12            1.0185     3.5255    -0.2153 C.ar    
  13 C13            2.1517     4.3180    -0.3055 C.ar    
  14 C14            3.4090     3.7402    -0.2635 C.ar    
  15 C15            3.5344     2.3468    -0.1286 C.ar    
  16 C16            2.3833     1.5513    -0.0325 C.ar    
  17 O17            4.5176     4.5171    -0.3529 O.3     
  18 C18            4.3140     5.9249    -0.4889 C.3     
  19 O19           -0.2115     4.0980    -0.2575 O.3     
  20 C20           -0.2611     5.5194    -0.3956 C.3     
  21 C21            4.8615     1.7286    -0.0834 C.2     
  22 O22            5.8557     2.4197    -0.1626 O.2     
  23 C23            4.9921     0.2342     0.0613 C.3     
  24 H24           -0.8488     1.6498    -0.3828 H       
  25 H25           -1.9340    -0.2417     0.4556 H       
  26 H26            1.1311    -2.0691     2.0007 H       
  27 H27           -0.2175    -5.4758     3.5014 H       
  28 H28            1.2148    -5.0398     2.5388 H       
  29 H29            0.9097    -4.2331     4.0959 H       
  30 H30            2.0538     5.3886    -0.4092 H       
  31 H31            2.4730     0.4804     0.0751 H       
  32 H32            5.2793     6.4275    -0.5496 H       
  33 H33            3.7433     6.1236    -1.3960 H       
  34 H34            3.7641     6.2976     0.3753 H       
  35 H35            0.2300     5.8117    -1.3238 H       
  36 H36           -1.3007     5.8464    -0.4160 H       
  37 H37            0.2495     5.9844     0.4477 H       
  38 H38            4.5015    -0.2565    -0.7792 H       
  39 H39            6.0474    -0.0385     0.0758 H       
  40 H40            4.5220    -0.0831     0.9922 H       
@<TRIPOS>BOND
   1    1    2 am
   2    1   11 1
   3    1   24 1
   4    2    3 2
   5    2    4 am
   6    4    7 1
   7    4   25 1
   8    5    6 1
   9    5    9 1
  10    6    7 2
  11    7    8 1
  12    8    9 2
  13    8   26 1
  14    9   10 1
  15   10   27 1
  16   10   28 1
  17   10   29 1
  18   11   12 ar
  19   11   16 ar
  20   12   13 ar
  21   12   19 1
  22   13   14 ar
  23   13   30 1
  24   14   15 ar
  25   14   17 1
  26   15   16 ar
  27   15   21 1
  28   16   31 1
  29   17   18 1
  30   18   32 1
  31   18   33 1
  32   18   34 1
  33   19   20 1
  34   20   35 1
  35   20   36 1
  36   20   37 1
  37   21   22 2
  38   21   23 1
  39   23   38 1
  40   23   39 1
  41   23   40 1

#	End of record

