#	Name: ASD01870119
#	Creating user name:	WinNT
#	Creation time:	15. 06. 2019 19:38

#	Modifying user name:	WinNT
#	Modification time:	15. 06. 2019 19:38

#	Program:	/corina/corina34_cracker 3.40 0067  02.08.2006

@<TRIPOS>MOLECULE
ASD01870119
  30   31    0    0    0
SMALL
NO_CHARGES


@<TRIPOS>ATOM
   1 C1             0.0005     1.2789    -0.4053 C.ar    
   2 C2             0.0295    -0.0836    -0.1849 C.ar    
   3 C3             1.2360    -0.7353     0.0195 C.ar    
   4 C4             2.4195    -0.0278     0.0050 C.ar    
   5 C5             2.4034     1.3516    -0.2171 C.ar    
   6 C6             1.1815     2.0059    -0.4236 C.ar    
   7 O7             1.1539     3.3448    -0.6407 O.3     
   8 Cl8            1.2568    -2.4491     0.2955 Cl      
   9 C9             3.6655     2.1149    -0.2336 C.2     
  10 O10            3.6476     3.3152    -0.4272 O.2     
  11 N11            4.8386     1.4819    -0.0340 N.am    
  12 C12            6.0414     2.1865    -0.1464 C.ar    
  13 C13            6.1133     3.5106     0.2660 C.ar    
  14 C14            7.1682     1.5617    -0.6656 C.ar    
  15 C15            8.3544     2.2601    -0.7748 C.ar    
  16 C16            8.4214     3.5802    -0.3675 C.ar    
  17 C17            7.3029     4.2036     0.1541 C.ar    
  18 C18            9.5774     1.5832    -1.3378 C.3     
  19 F19            9.6140     1.7646    -2.7245 F       
  20 F20           10.7249     2.1409    -0.7641 F       
  21 F21            9.5285     0.2155    -1.0477 F       
  22 H22           -0.9429     1.7788    -0.5682 H       
  23 H23           -0.8930    -0.6450    -0.1712 H       
  24 H24            3.3572    -0.5390     0.1653 H       
  25 H25            1.2182     3.5936    -1.5729 H       
  26 H26            4.8485     0.5376     0.1875 H       
  27 H27            5.2400     3.9981     0.6736 H       
  28 H28            7.1167     0.5308    -0.9831 H       
  29 H29            9.3506     4.1240    -0.4533 H       
  30 H30            7.3586     5.2344     0.4712 H       
@<TRIPOS>BOND
   1    1    2 ar
   2    1    6 ar
   3    1   22 1
   4    2    3 ar
   5    2   23 1
   6    3    4 ar
   7    3    8 1
   8    4    5 ar
   9    4   24 1
  10    5    6 ar
  11    5    9 1
  12    6    7 1
  13    7   25 1
  14    9   10 2
  15    9   11 am
  16   11   12 1
  17   11   26 1
  18   12   13 ar
  19   12   14 ar
  20   13   17 ar
  21   13   27 1
  22   14   15 ar
  23   14   28 1
  24   15   16 ar
  25   15   18 1
  26   16   17 ar
  27   16   29 1
  28   17   30 1
  29   18   19 1
  30   18   20 1
  31   18   21 1

#	End of record

