#	Name: ASD01870680
#	Creating user name:	WinNT
#	Creation time:	15. 06. 2019 19:39

#	Modifying user name:	WinNT
#	Modification time:	15. 06. 2019 19:39

#	Program:	/corina/corina34_cracker 3.40 0067  02.08.2006

@<TRIPOS>MOLECULE
ASD01870680
  38   41    0    0    0
SMALL
NO_CHARGES


@<TRIPOS>ATOM
   1 C1            -0.0174     1.4474     0.0142 C.2     
   2 C2             0.0020    -0.0041    -0.0009 C.2     
   3 C3             1.2282    -0.5353    -0.0720 C.2     
   4 S4             2.4387     0.6593    -0.1255 S.3     
   5 C5             1.2694     1.9672    -0.0500 C.2     
   6 C6            -1.2300    -0.8268     0.0582 C.ar    
   7 C7            -1.4325    -1.8508    -0.8657 C.ar    
   8 C8            -2.5812    -2.6133    -0.8058 C.ar    
   9 C9            -3.5309    -2.3627     0.1683 C.ar    
  10 C10           -3.3356    -1.3476     1.0875 C.ar    
  11 C11           -2.1876    -0.5829     1.0415 C.ar    
  12 N12           -1.0679     2.3086     0.0843 N.2     
  13 C13            1.4388     3.3734    -0.0455 C.2     
  14 N14            0.3426     4.1567     0.0211 N.am    
  15 C15           -0.8947     3.5944     0.0870 C.2     
  16 C16            0.4784     5.5495     0.0277 C.ar    
  17 C17            0.0289     6.2952    -1.0557 C.ar    
  18 C18            0.1611     7.6670    -1.0523 C.ar    
  19 C19            0.7469     8.3075     0.0411 C.ar    
  20 C20            1.1970     7.5556     1.1278 C.ar    
  21 C21            1.0574     6.1846     1.1202 C.ar    
  22 O22            2.5532     3.8661    -0.1003 O.2     
  23 C23            0.8907     9.7780     0.0479 C.2     
  24 C24            1.4474    10.3850     1.0872 C.2     
  25 H25            1.4261    -1.5968    -0.0923 H       
  26 H26           -0.6920    -2.0468    -1.6270 H       
  27 H27           -2.7392    -3.4069    -1.5211 H       
  28 H28           -4.4285    -2.9618     0.2111 H       
  29 H29           -4.0806    -1.1562     1.8456 H       
  30 H30           -2.0339     0.2062     1.7626 H       
  31 H31           -1.7597     4.2386     0.1436 H       
  32 H32           -0.4242     5.7991    -1.9012 H       
  33 H33           -0.1878     8.2458    -1.8947 H       
  34 H34            1.6506     8.0481     1.9752 H       
  35 H35            1.4016     5.6026     1.9624 H       
  36 H36            0.5425    10.3586    -0.7936 H       
  37 H37            1.7957     9.8045     1.9287 H       
  38 H38            1.5526    11.4599     1.0922 H       
@<TRIPOS>BOND
   1    1    2 1
   2    1    5 2
   3    1   12 1
   4    2    3 2
   5    2    6 1
   6    3    4 1
   7    3   25 1
   8    4    5 1
   9    5   13 1
  10    6    7 ar
  11    6   11 ar
  12    7    8 ar
  13    7   26 1
  14    8    9 ar
  15    8   27 1
  16    9   10 ar
  17    9   28 1
  18   10   11 ar
  19   10   29 1
  20   11   30 1
  21   12   15 2
  22   13   14 am
  23   13   22 2
  24   14   15 1
  25   14   16 1
  26   15   31 1
  27   16   17 ar
  28   16   21 ar
  29   17   18 ar
  30   17   32 1
  31   18   19 ar
  32   18   33 1
  33   19   20 ar
  34   19   23 1
  35   20   21 ar
  36   20   34 1
  37   21   35 1
  38   23   24 2
  39   23   36 1
  40   24   37 1
  41   24   38 1

#	End of record

