#	Name: ASD02500298
#	Creating user name:	WinNT
#	Creation time:	15. 06. 2019 20:22

#	Modifying user name:	WinNT
#	Modification time:	15. 06. 2019 20:22

#	Program:	/corina/corina34_cracker 3.40 0067  02.08.2006

@<TRIPOS>MOLECULE
ASD02500298
  63   67    0    0    0
SMALL
NO_CHARGES


@<TRIPOS>ATOM
   1 N1            -3.6131     5.9092    -1.1989 N.ar    
   2 C2            -4.5340     6.5758    -1.8517 C.ar    
   3 C3            -5.8741     6.5380    -1.4721 C.ar    
   4 C4            -6.2565     5.7917    -0.3941 C.ar    
   5 C5            -5.2650     5.0769     0.3042 C.ar    
   6 C6            -5.5822     4.2889     1.4219 C.ar    
   7 C7            -4.5942     3.6127     2.0708 C.ar    
   8 C8            -3.2716     3.6927     1.6405 C.ar    
   9 C9            -2.9287     4.4472     0.5608 C.ar    
  10 C10           -3.9203     5.1598    -0.1353 C.ar    
  11 S11           -1.2480     4.5311     0.0384 S.o2    
  12 O12           -0.9567     5.9082    -0.1566 O.2     
  13 O13           -0.5108     3.6984     0.9229 O.2     
  14 N14           -1.1625     3.8192    -1.4543 N.am    
  15 C15           -1.4353     2.4629    -1.5944 C.ar    
  16 C16           -2.2766     2.0252    -2.6136 C.ar    
  17 C17           -2.5486     0.6837    -2.7548 C.ar    
  18 C18           -1.9791    -0.2400    -1.8735 C.ar    
  19 C19           -1.1347     0.2027    -0.8511 C.ar    
  20 C20           -0.8621     1.5450    -0.7186 C.ar    
  21 C21           -2.2689    -1.6788    -2.0218 C.2     
  22 O22           -3.3664    -2.0423    -2.3987 O.2     
  23 N23           -1.3172    -2.5905    -1.7396 N.am    
  24 C24           -0.0141    -2.1936    -1.1471 C.3     
  25 C25           -0.0348    -2.4368     0.2910 C.3     
  26 N26           -0.4171    -3.8481     0.5534 N.am    
  27 C27           -1.8016    -4.1635     0.4994 C.3     
  28 C28           -2.2853    -4.7411    -0.8709 C.3     
  29 C29           -1.5182    -3.9748    -1.9900 C.3     
  30 C30            0.5085    -4.7880     0.8300 C.2     
  31 C31            1.9376    -4.4246     0.8773 C.ar    
  32 C32            2.7209    -4.4981    -0.2796 C.ar    
  33 C33            4.0590    -4.1559    -0.2263 C.ar    
  34 C34            4.6239    -3.7416     0.9662 C.ar    
  35 C35            3.8570    -3.6660     2.1146 C.ar    
  36 C36            2.5159    -3.9990     2.0780 C.ar    
  37 O37            0.1656    -5.9354     1.0405 O.2     
  38 F38            1.7672    -3.9191     3.1997 F       
  39 F39            2.1711    -4.9030    -1.4454 F       
  40 H40           -4.2462     7.1702    -2.7062 H       
  41 H41           -6.6097     7.0987    -2.0297 H       
  42 H42           -7.2908     5.7514    -0.0858 H       
  43 H43           -6.6037     4.2196     1.7654 H       
  44 H44           -4.8391     3.0067     2.9306 H       
  45 H45           -2.5059     3.1476     2.1724 H       
  46 H46           -0.9221     4.3482    -2.2310 H       
  47 H47           -2.7166     2.7394    -3.2940 H       
  48 H48           -3.2016     0.3448    -3.5455 H       
  49 H49           -0.6935    -0.5085    -0.1684 H       
  50 H50           -0.2061     1.8872     0.0681 H       
  51 H51            0.7848    -2.7787    -1.6026 H       
  52 H52            0.1615    -1.1340    -1.3334 H       
  53 H53            0.9551    -2.2459     0.7055 H       
  54 H54           -0.7589    -1.7714     0.7611 H       
  55 H55           -2.0196    -4.8944     1.2782 H       
  56 H56           -2.3703    -3.2583     0.7122 H       
  57 H57           -2.0579    -5.8057    -0.9256 H       
  58 H58           -3.3582    -4.5839    -0.9818 H       
  59 H59           -2.0794    -4.0794    -2.9186 H       
  60 H60           -0.5446    -4.4459    -2.1249 H       
  61 H61            4.6652    -4.2124    -1.1184 H       
  62 H62            5.6702    -3.4760     1.0009 H       
  63 H63            4.3061    -3.3415     3.0416 H       
@<TRIPOS>BOND
   1    1    2 ar
   2    1   10 ar
   3    2    3 ar
   4    2   40 1
   5    3    4 ar
   6    3   41 1
   7    4    5 ar
   8    4   42 1
   9    5    6 ar
  10    5   10 ar
  11    6    7 ar
  12    6   43 1
  13    7    8 ar
  14    7   44 1
  15    8    9 ar
  16    8   45 1
  17    9   10 ar
  18    9   11 1
  19   11   12 2
  20   11   13 2
  21   11   14 am
  22   14   15 1
  23   14   46 1
  24   15   16 ar
  25   15   20 ar
  26   16   17 ar
  27   16   47 1
  28   17   18 ar
  29   17   48 1
  30   18   19 ar
  31   18   21 1
  32   19   20 ar
  33   19   49 1
  34   20   50 1
  35   21   22 2
  36   21   23 am
  37   23   24 1
  38   23   29 1
  39   24   25 1
  40   24   51 1
  41   24   52 1
  42   25   26 1
  43   25   53 1
  44   25   54 1
  45   26   27 1
  46   26   30 am
  47   27   28 1
  48   27   55 1
  49   27   56 1
  50   28   29 1
  51   28   57 1
  52   28   58 1
  53   29   59 1
  54   29   60 1
  55   30   31 1
  56   30   37 2
  57   31   32 ar
  58   31   36 ar
  59   32   33 ar
  60   32   39 1
  61   33   34 ar
  62   33   61 1
  63   34   35 ar
  64   34   62 1
  65   35   36 ar
  66   35   63 1
  67   36   38 1

#	End of record

