#	Name: ASD08150064
#	Creating user name:	WinNT
#	Creation time:	15. 06. 2019 21:15

#	Modifying user name:	WinNT
#	Modification time:	15. 06. 2019 21:15

#	Program:	/corina/corina34_cracker 3.40 0067  02.08.2006

@<TRIPOS>MOLECULE
ASD08150064
  38   39    0    0    0
SMALL
NO_CHARGES


@<TRIPOS>ATOM
   1 O1             0.0008     1.3493    -0.0486 O.3     
   2 C2             0.0174     0.0124    -0.0050 C.2     
   3 N3             1.2495    -0.5138     0.0208 N.am    
   4 C4             2.2343     0.5785    -0.0078 C.3     
   5 C5             1.3683     1.8521    -0.0553 C.3     
   6 O6            -0.9925    -0.6631     0.0105 O.2     
   7 C7             3.1118     0.4784    -1.2571 C.3     
   8 C8             1.5645    -1.9437     0.0695 C.3     
   9 C9             1.7873    -2.3605     1.5005 C.ar    
  10 C10            0.7097    -2.7084     2.2938 C.ar    
  11 C11            0.9113    -3.0908     3.6058 C.ar    
  12 C12            2.1964    -3.1257     4.1273 C.ar    
  13 C13            3.2760    -2.7762     3.3292 C.ar    
  14 C14            3.0696    -2.3999     2.0161 C.ar    
  15 O15            2.3973    -3.5012     5.4178 O.3     
  16 C16            3.7470    -3.5138     5.8872 C.3     
  17 C17            1.6436     2.6404    -1.3374 C.3     
  18 C18            0.8044     3.8921    -1.3475 C.2     
  19 C19            1.3747     5.0618    -1.4986 C.2     
  20 H20            2.8469     0.5655     0.8937 H       
  21 H21            1.5518     2.4720     0.8223 H       
  22 H22            2.4792     0.4501    -2.1442 H       
  23 H23            3.7711     1.3449    -1.3084 H       
  24 H24            3.7105    -0.4312    -1.2087 H       
  25 H25            0.7348    -2.5130    -0.3498 H       
  26 H26            2.4672    -2.1369    -0.5100 H       
  27 H27           -0.2906    -2.6807     1.8875 H       
  28 H28            0.0692    -3.3621     4.2252 H       
  29 H29            4.2774    -2.8025     3.7329 H       
  30 H30            3.9102    -2.1323     1.3930 H       
  31 H31            3.7661    -3.8310     6.9298 H       
  32 H32            4.3344    -4.2074     5.2856 H       
  33 H33            4.1699    -2.5126     5.8042 H       
  34 H34            2.6989     2.9101    -1.3786 H       
  35 H35            1.3913     2.0269    -2.2024 H       
  36 H36           -0.2671     3.8249    -1.2301 H       
  37 H37            0.7733     5.9588    -1.5058 H       
  38 H38            2.4462     5.1290    -1.6159 H       
@<TRIPOS>BOND
   1    1    2 1
   2    1    5 1
   3    2    3 am
   4    2    6 2
   5    3    4 1
   6    3    8 1
   7    4    5 1
   8    4    7 1
   9    4   20 1
  10    5   17 1
  11    5   21 1
  12    7   22 1
  13    7   23 1
  14    7   24 1
  15    8    9 1
  16    8   25 1
  17    8   26 1
  18    9   10 ar
  19    9   14 ar
  20   10   11 ar
  21   10   27 1
  22   11   12 ar
  23   11   28 1
  24   12   13 ar
  25   12   15 1
  26   13   14 ar
  27   13   29 1
  28   14   30 1
  29   15   16 1
  30   16   31 1
  31   16   32 1
  32   16   33 1
  33   17   18 1
  34   17   34 1
  35   17   35 1
  36   18   19 2
  37   18   36 1
  38   19   37 1
  39   19   38 1

#	End of record

