#	Name: ASD03092041
#	Creating user name:	WinNT
#	Creation time:	15. 06. 2019 20:31

#	Modifying user name:	WinNT
#	Modification time:	15. 06. 2019 20:31

#	Program:	/corina/corina34_cracker 3.40 0067  02.08.2006

@<TRIPOS>MOLECULE
ASD03092041
  46   48    0    0    0
SMALL
NO_CHARGES


@<TRIPOS>ATOM
   1 N1             0.1391     1.5176     0.0350 N.am    
   2 C2             0.1263     0.1490    -0.0403 C.2     
   3 C3            -1.1784    -0.2436    -0.0880 C.2     
   4 C4            -1.9765     0.9107    -0.0408 C.2     
   5 N5            -1.1905     1.9582     0.0385 N.2     
   6 C6             1.2351     2.2993     0.0998 C.2     
   7 N7             1.1098     3.6405     0.0567 N.am    
   8 N8            -3.3735     0.9387    -0.0680 N.pl3   
   9 C9            -4.0510     2.1511     0.0840 C.ar    
  10 C10           -3.5046     3.3224    -0.4250 C.ar    
  11 C11           -4.1773     4.5191    -0.2734 C.ar    
  12 C12           -5.3931     4.5521     0.3841 C.ar    
  13 C13           -5.9398     3.3878     0.8926 C.ar    
  14 C14           -5.2755     2.1871     0.7396 C.ar    
  15 C15            1.3093    -0.7380    -0.0651 C.ar    
  16 C16            1.3002    -1.9679     0.6027 C.ar    
  17 C17            2.4258    -2.7639     0.5533 C.ar    
  18 N18            3.4990    -2.3793    -0.1107 N.ar    
  19 C19            3.5496    -1.2280    -0.7537 C.ar    
  20 C20            2.4673    -0.3734    -0.7621 C.ar    
  21 C21            2.3011     4.4902     0.1272 C.3     
  22 C22            4.8050    -0.8447    -1.4939 C.3     
  23 O23            2.3363     1.7948     0.1972 O.2     
  24 C24            1.8837     5.9605     0.0583 C.3     
  25 C25           -3.5851     5.7905    -0.8249 C.3     
  26 F26           -4.0255     5.9783    -2.1394 F       
  27 F27           -3.9909     6.8736    -0.0379 F       
  28 F28           -2.1891     5.6998    -0.8093 F       
  29 H29           -1.5346    -1.2612    -0.1512 H       
  30 H30            0.2307     4.0432    -0.0211 H       
  31 H31           -3.8728     0.1164    -0.1925 H       
  32 H32           -2.5548     3.2974    -0.9384 H       
  33 H33           -5.9170     5.4893     0.5013 H       
  34 H34           -6.8894     3.4173     1.4063 H       
  35 H35           -5.7029     1.2783     1.1369 H       
  36 H36            0.4254    -2.2887     1.1488 H       
  37 H37            2.4286    -3.7147     1.0655 H       
  38 H38            2.5156     0.5671    -1.2907 H       
  39 H39            2.8247     4.3047     1.0650 H       
  40 H40            2.9613     4.2604    -0.7092 H       
  41 H41            4.7480    -1.2096    -2.5194 H       
  42 H42            4.9065     0.2406    -1.4995 H       
  43 H43            5.6687    -1.2878    -0.9981 H       
  44 H44            2.7701     6.5927     0.1107 H       
  45 H45            1.3601     6.1460    -0.8796 H       
  46 H46            1.2235     6.1904     0.8946 H       
@<TRIPOS>BOND
   1    1    2 1
   2    1    6 am
   3    1    5 1
   4    2    3 2
   5    2   15 1
   6    3    4 1
   7    3   29 1
   8    4    5 2
   9    4    8 1
  10    6    7 am
  11    6   23 2
  12    7   21 1
  13    7   30 1
  14    8    9 1
  15    8   31 1
  16    9   10 ar
  17    9   14 ar
  18   10   11 ar
  19   10   32 1
  20   11   12 ar
  21   11   25 1
  22   12   13 ar
  23   12   33 1
  24   13   14 ar
  25   13   34 1
  26   14   35 1
  27   15   16 ar
  28   15   20 ar
  29   16   17 ar
  30   16   36 1
  31   17   18 ar
  32   17   37 1
  33   18   19 ar
  34   19   20 ar
  35   19   22 1
  36   20   38 1
  37   21   24 1
  38   21   39 1
  39   21   40 1
  40   22   41 1
  41   22   42 1
  42   22   43 1
  43   24   44 1
  44   24   45 1
  45   24   46 1
  46   25   26 1
  47   25   27 1
  48   25   28 1

#	End of record

