#	Name: ASD01140043
#	Creating user name:	WinNT
#	Creation time:	15. 06. 2019 18:59

#	Modifying user name:	WinNT
#	Modification time:	15. 06. 2019 18:59

#	Program:	/corina/corina34_cracker 3.40 0067  02.08.2006

@<TRIPOS>MOLECULE
ASD01140043
  47   50    0    0    0
SMALL
NO_CHARGES


@<TRIPOS>ATOM
   1 C1            -0.0769     1.5498     0.0049 C.2     
   2 N2            -0.1507     0.1925     0.0517 N.2     
   3 C3             1.0559    -0.2989     0.0656 C.2     
   4 N4             1.9490     0.7269     0.0152 N.pl3   
   5 C5             3.3411     0.6259    -0.0342 C.ar    
   6 C6             4.1735     1.5501     0.6017 C.ar    
   7 C7             3.6649     2.6452     1.4367 C.2     
   8 N8             2.6494     3.4060     1.2120 N.2     
   9 C9             1.8347     3.2690    -0.0002 C.3     
  10 C10            1.2427     1.8833    -0.0019 C.2     
  11 C11            5.5613     1.4237     0.4624 C.ar    
  12 C12            6.1022     0.3737    -0.2695 C.ar    
  13 C13            5.2583    -0.5632    -0.8716 C.ar    
  14 C14            3.8934    -0.4321    -0.7523 C.ar    
  15 C15           -1.2130     2.4843    -0.0370 C.2     
  16 O16           -1.0131     3.6825    -0.0777 O.2     
  17 O17           -2.4752     2.0114    -0.0303 O.3     
  18 C18            2.7123     3.4594    -1.2389 C.3     
  19 C19            4.4090     2.9071     2.6895 C.ar    
  20 C20            4.4352     1.9467     3.7042 C.ar    
  21 C21            5.1323     2.1989     4.8712 C.ar    
  22 C22            5.8012     3.3981     5.0342 C.ar    
  23 C23            5.7783     4.3523     4.0322 C.ar    
  24 C24            5.0918     4.1114     2.8601 C.ar    
  25 F25            3.7809     0.7754     3.5455 F       
  26 C26            7.5224     0.2522    -0.4068 C.1     
  27 C27            8.6867     0.1526    -0.5195 C.1     
  28 C28           -3.5463     2.9908    -0.0733 C.3     
  29 C29           -4.8964     2.2710    -0.0587 C.3     
  30 H30            1.3064    -1.3485     0.1102 H       
  31 H31            1.0366     4.0113     0.0055 H       
  32 H32            6.2153     2.1471     0.9265 H       
  33 H33            5.6761    -1.3881    -1.4295 H       
  34 H34            3.2440    -1.1571    -1.2204 H       
  35 H35            3.4990     2.7050    -1.2463 H       
  36 H36            2.1018     3.3566    -2.1360 H       
  37 H37            3.1614     4.4524    -1.2168 H       
  38 H38            5.1542     1.4583     5.6570 H       
  39 H39            6.3439     3.5910     5.9478 H       
  40 H40            6.3028     5.2868     4.1666 H       
  41 H41            5.0795     4.8557     2.0777 H       
  42 H42            9.7281     0.0635    -0.6202 H       
  43 H43           -3.4745     3.6461     0.7947 H       
  44 H44           -3.4604     3.5834    -0.9841 H       
  45 H45           -4.9682     1.6157    -0.9267 H       
  46 H46           -4.9823     1.6784     0.8521 H       
  47 H47           -5.7004     3.0063    -0.0909 H       
@<TRIPOS>BOND
   1    1    2 1
   2    1   10 2
   3    1   15 1
   4    2    3 2
   5    3    4 1
   6    3   30 1
   7    4    5 1
   8    4   10 1
   9    5    6 ar
  10    5   14 ar
  11    6    7 1
  12    6   11 ar
  13    7    8 2
  14    7   19 1
  15    8    9 1
  16    9   10 1
  17    9   18 1
  18    9   31 1
  19   11   12 ar
  20   11   32 1
  21   12   13 ar
  22   12   26 1
  23   13   14 ar
  24   13   33 1
  25   14   34 1
  26   15   16 2
  27   15   17 1
  28   17   28 1
  29   18   35 1
  30   18   36 1
  31   18   37 1
  32   19   20 ar
  33   19   24 ar
  34   20   21 ar
  35   20   25 1
  36   21   22 ar
  37   21   38 1
  38   22   23 ar
  39   22   39 1
  40   23   24 ar
  41   23   40 1
  42   24   41 1
  43   26   27 3
  44   27   42 1
  45   28   29 1
  46   28   43 1
  47   28   44 1
  48   29   45 1
  49   29   46 1
  50   29   47 1

#	End of record

