#	Name: ASD02560124
#	Creating user name:	WinNT
#	Creation time:	15. 06. 2019 20:24

#	Modifying user name:	WinNT
#	Modification time:	15. 06. 2019 20:24

#	Program:	/corina/corina34_cracker 3.40 0067  02.08.2006

@<TRIPOS>MOLECULE
ASD02560124
  54   57    0    0    0
SMALL
NO_CHARGES


@<TRIPOS>ATOM
   1 N1             0.0579     1.3583     0.0837 N.2     
   2 N2            -0.0194     0.1288    -0.0026 N.2     
   3 C3             1.4571     1.8044     0.0783 C.3     
   4 N4             2.2456     0.5805     0.3698 N.3     
   5 C5             1.3133    -0.4830    -0.0823 C.3     
   6 S6             1.4147    -1.9216     1.0181 S.3     
   7 C7             0.9441    -1.2361     2.6303 C.3     
   8 C8             0.9804    -2.3266     3.6698 C.2     
   9 O9             1.2930    -3.4551     3.3542 O.2     
  10 N10            0.6655    -2.0477     4.9503 N.am    
  11 Br11           1.9391     2.5252    -1.6862 Br      
  12 C12            3.4283     0.5583    -0.3730 C.ar    
  13 C13            0.6235    -3.0711     5.8968 C.ar    
  14 C14           -0.1965    -2.9493     7.0158 C.ar    
  15 C15           -0.2401    -3.9583     7.9522 C.ar    
  16 C16            0.5402    -5.1055     7.7778 C.ar    
  17 C17            1.3619    -5.2237     6.6532 C.ar    
  18 C18            1.3964    -4.2136     5.7181 C.ar    
  19 Cl19          -1.1642    -1.5241     7.2309 Cl      
  20 C20            0.4968    -6.1879     8.7783 C.2     
  21 O21           -0.2176    -6.0835     9.7556 O.2     
  22 O22            1.2494    -7.2927     8.6088 O.3     
  23 C23            3.3818     0.3883    -1.7507 C.ar    
  24 C24            4.6534     0.7118     0.2639 C.ar    
  25 C25            5.8207     0.6893    -0.4734 C.ar    
  26 C26            5.7712     0.5146    -1.8445 C.ar    
  27 C27            4.5533     0.3668    -2.4822 C.ar    
  28 C28            4.7082     0.9032     1.7577 C.3     
  29 C29            7.0472     0.4916    -2.6460 C.3     
  30 C30            7.3571    -0.7763    -3.4444 C.3     
  31 C31            6.9237     0.4985    -4.1709 C.3     
  32 C32            4.6866    -0.4621     2.4480 C.3     
  33 H33            1.6195     2.5540     0.8528 H       
  34 H34            1.5372    -0.7729    -1.1089 H       
  35 H35            1.6427    -0.4466     2.9074 H       
  36 H36           -0.0636    -0.8249     2.5702 H       
  37 H37            0.4681    -1.1353     5.2135 H       
  38 H38           -0.8758    -3.8635     8.8201 H       
  39 H39            1.9660    -6.1083     6.5159 H       
  40 H40            2.0312    -4.3048     4.8491 H       
  41 H41            1.1875    -7.9750     9.2912 H       
  42 H42            2.4309     0.2728    -2.2494 H       
  43 H43            6.7734     0.8086     0.0211 H       
  44 H44            4.5182     0.2305    -3.5529 H       
  45 H45            5.6249     1.4300     2.0231 H       
  46 H46            3.8468     1.4875     2.0811 H       
  47 H47            7.8882     1.0277    -2.2063 H       
  48 H48            8.4021    -1.0740    -3.5303 H       
  49 H49            6.6381    -1.5937    -3.3899 H       
  50 H50            5.9196     0.5198    -4.5945 H       
  51 H51            7.6836     1.0395    -4.7349 H       
  52 H52            3.7700    -0.9889     2.1826 H       
  53 H53            5.5481    -1.0464     2.1246 H       
  54 H54            4.7263    -0.3237     3.5284 H       
@<TRIPOS>BOND
   1    1    2 2
   2    1    3 1
   3    2    5 1
   4    3    4 1
   5    3   11 1
   6    3   33 1
   7    4    5 1
   8    4   12 1
   9    5    6 1
  10    5   34 1
  11    6    7 1
  12    7    8 1
  13    7   35 1
  14    7   36 1
  15    8    9 2
  16    8   10 am
  17   10   13 1
  18   10   37 1
  19   12   23 ar
  20   12   24 ar
  21   13   14 ar
  22   13   18 ar
  23   14   15 ar
  24   14   19 1
  25   15   16 ar
  26   15   38 1
  27   16   17 ar
  28   16   20 1
  29   17   18 ar
  30   17   39 1
  31   18   40 1
  32   20   21 2
  33   20   22 1
  34   22   41 1
  35   23   27 ar
  36   23   42 1
  37   24   25 ar
  38   24   28 1
  39   25   26 ar
  40   25   43 1
  41   26   27 ar
  42   26   29 1
  43   27   44 1
  44   28   32 1
  45   28   45 1
  46   28   46 1
  47   29   30 1
  48   29   31 1
  49   29   47 1
  50   30   31 1
  51   30   48 1
  52   30   49 1
  53   31   50 1
  54   31   51 1
  55   32   52 1
  56   32   53 1
  57   32   54 1

#	End of record

