#	Name: ASD01209256
#	Creating user name:	WinNT
#	Creation time:	15. 06. 2019 19:11

#	Modifying user name:	WinNT
#	Modification time:	15. 06. 2019 19:11

#	Program:	/corina/corina34_cracker 3.40 0067  02.08.2006

@<TRIPOS>MOLECULE
ASD01209256
  67   69    0    0    0
SMALL
NO_CHARGES


@<TRIPOS>ATOM
   1 O1            -1.7667     1.7000    -0.1932 O.3     
   2 O2             0.2692     1.9517     1.4511 O.3     
   3 C3            -0.2287     5.4989    -6.0378 C.2     
   4 N4             0.3732     5.1981    -4.8700 N.am    
   5 O5            -1.4390     5.4874    -6.1168 O.2     
   6 C6            -0.3922     4.9691    -3.7320 C.2     
   7 P7            -0.2945     2.3253    -0.0099 P.3     
   8 O8             0.6087     1.7719    -1.0435 O.2     
   9 C9            -0.3783     4.1381    -0.1837 C.3     
  10 N10            0.0849     4.6742    -2.5639 N.2     
  11 S11           -2.0991     5.0432    -3.6692 S.3     
  12 C12           -2.0645     4.6377    -1.9551 C.2     
  13 C13           -0.7884     4.4895    -1.5906 C.2     
  14 C14            0.5497     0.6108     1.8577 C.3     
  15 C15            1.0681     0.6121     3.2971 C.3     
  16 C16           -2.0176     0.2934    -0.2158 C.3     
  17 C17           -3.5155     0.0455    -0.4048 C.3     
  18 Cl18          -3.4473     4.4663    -0.9197 Cl      
  19 C19            0.6019     5.8496    -7.2453 C.3     
  20 C20            1.3448     7.1624    -6.9894 C.3     
  21 C21           -0.2967     6.0064    -8.4448 C.ar    
  22 C22           -0.1207     5.1962    -9.5509 C.ar    
  23 C23           -1.3006     6.9567    -8.4368 C.ar    
  24 C24           -2.1249     7.1006    -9.5372 C.ar    
  25 C25           -1.9450     6.2945   -10.6456 C.ar    
  26 C26           -0.9450     5.3401   -10.6513 C.ar    
  27 S27           -2.9961     6.4775   -12.0479 S.o2    
  28 O28           -2.9758     5.2001   -12.6702 O.2     
  29 O29           -4.1995     7.0143   -11.5162 O.2     
  30 C30           -2.1559     7.7048   -13.0863 C.3     
  31 C31            2.2760     7.4592    -8.1666 C.3     
  32 C32            2.9402     8.8346    -7.9795 C.3     
  33 C33            4.4612     8.5849    -7.9184 C.3     
  34 C34            4.6551     7.2382    -8.6586 C.3     
  35 C35            3.4167     6.4217    -8.2126 C.3     
  36 H36            1.3404     5.1413    -4.8235 H       
  37 H37           -1.1104     4.5369     0.5185 H       
  38 H38            0.6004     4.5690     0.0279 H       
  39 H39           -0.3617     0.0156     1.8003 H       
  40 H40            1.3056     0.1822     1.1996 H       
  41 H41            1.2820    -0.4108     3.6072 H       
  42 H42            1.9795     1.2073     3.3545 H       
  43 H43            0.3122     1.0407     3.9552 H       
  44 H44           -1.4673    -0.1606    -1.0399 H       
  45 H45           -1.6921    -0.1489     0.7258 H       
  46 H46           -3.8410     0.4878    -1.3464 H       
  47 H47           -3.7068    -1.0275    -0.4220 H       
  48 H48           -4.0658     0.4995     0.4193 H       
  49 H49            1.3235     5.0545    -7.4333 H       
  50 H50            0.6239     7.9731    -6.8831 H       
  51 H51            1.9315     7.0757    -6.0749 H       
  52 H52            0.6610     4.4510    -9.5555 H       
  53 H53           -1.4411     7.5865    -7.5708 H       
  54 H54           -2.9097     7.8425    -9.5306 H       
  55 H55           -0.8045     4.7103   -11.5173 H       
  56 H56           -1.1695     7.3325   -13.3629 H       
  57 H57           -2.7433     7.8817   -13.9873 H       
  58 H58           -2.0500     8.6377   -12.5327 H       
  59 H59            1.7146     7.4397    -9.1006 H       
  60 H60            2.7017     9.4822    -8.8232 H       
  61 H61            2.5990     9.2907    -7.0501 H       
  62 H62            4.9997     9.3825    -8.4303 H       
  63 H63            4.7931     8.5025    -6.8834 H       
  64 H64            4.6513     7.3868    -9.7384 H       
  65 H65            5.5755     6.7501    -8.3380 H       
  66 H66            3.5799     5.9900    -7.2251 H       
  67 H67            3.1929     5.6406    -8.9392 H       
@<TRIPOS>BOND
   1    1   16 1
   2    1    7 1
   3    2   14 1
   4    2    7 1
   5    3    4 am
   6    3    5 2
   7    3   19 1
   8    4    6 1
   9    4   36 1
  10    6   10 2
  11    6   11 1
  12    7    8 2
  13    7    9 1
  14    9   13 1
  15    9   37 1
  16    9   38 1
  17   10   13 1
  18   11   12 1
  19   12   13 2
  20   12   18 1
  21   14   15 1
  22   14   39 1
  23   14   40 1
  24   15   41 1
  25   15   42 1
  26   15   43 1
  27   16   17 1
  28   16   44 1
  29   16   45 1
  30   17   46 1
  31   17   47 1
  32   17   48 1
  33   19   20 1
  34   19   21 1
  35   19   49 1
  36   20   31 1
  37   20   50 1
  38   20   51 1
  39   21   22 ar
  40   21   23 ar
  41   22   26 ar
  42   22   52 1
  43   23   24 ar
  44   23   53 1
  45   24   25 ar
  46   24   54 1
  47   25   26 ar
  48   25   27 1
  49   26   55 1
  50   27   28 2
  51   27   29 2
  52   27   30 1
  53   30   56 1
  54   30   57 1
  55   30   58 1
  56   31   32 1
  57   31   35 1
  58   31   59 1
  59   32   33 1
  60   32   60 1
  61   32   61 1
  62   33   34 1
  63   33   62 1
  64   33   63 1
  65   34   35 1
  66   34   64 1
  67   34   65 1
  68   35   66 1
  69   35   67 1

#	End of record

