#	Name: ASD03091983
#	Creating user name:	WinNT
#	Creation time:	15. 06. 2019 20:31

#	Modifying user name:	WinNT
#	Modification time:	15. 06. 2019 20:31

#	Program:	/corina/corina34_cracker 3.40 0067  02.08.2006

@<TRIPOS>MOLECULE
ASD03091983
  60   64    0    0    0
SMALL
NO_CHARGES


@<TRIPOS>ATOM
   1 C1            -0.0150     1.3954     0.0120 C.ar    
   2 C2            -1.2492     2.0687     0.0343 C.ar    
   3 C3            -2.4496     1.3140     0.0357 C.ar    
   4 C4            -2.3930    -0.0932     0.0121 C.ar    
   5 C5            -1.1943    -0.7307    -0.0104 C.ar    
   6 C6             0.0034    -0.0000    -0.0094 C.ar    
   7 O7             1.1602     2.0653     0.0163 O.3     
   8 C8             2.2582     1.4565     0.6963 C.3     
   9 N9             2.4079     0.0583     0.2905 N.am    
  10 C10            1.3160    -0.6755    -0.0260 C.2     
  11 C11           -3.6690    -0.8951     0.0124 C.3     
  12 N12           -4.2258    -0.9298    -1.3466 N.3     
  13 O13            1.4126    -1.8531    -0.3144 O.2     
  14 C14            3.7405    -0.5469     0.2264 C.3     
  15 C15            4.5991     0.1764    -0.8316 C.3     
  16 C16            4.4638    -0.3728     1.5734 C.3     
  17 C17            5.7367     0.4503     1.2869 C.3     
  18 C18            5.4074     1.2174    -0.0178 C.3     
  19 O19            4.8168    -1.6501     2.1081 O.3     
  20 C20           -3.6823     1.9867     0.0603 C.ar    
  21 C21           -1.3163     3.4710     0.0547 C.ar    
  22 C22           -3.7094     3.3480     0.0808 C.ar    
  23 C23           -2.5298     4.0887     0.0772 C.ar    
  24 C24           -3.3429    -1.6684    -2.2583 C.3     
  25 C25           -3.8783    -1.5605    -3.6879 C.3     
  26 C26           -5.2958    -2.1368    -3.7417 C.3     
  27 C27           -6.1832    -1.3821    -2.7481 C.3     
  28 C28           -5.5810    -1.4952    -1.3457 C.3     
  29 O29           -5.8224    -1.9871    -5.0617 O.3     
  30 C30           -6.7561    -3.0029    -5.4337 C.3     
  31 H31           -1.1626    -1.8101    -0.0282 H       
  32 H32            3.1732     1.9992     0.4585 H       
  33 H33            2.0842     1.5016     1.7714 H       
  34 H34           -3.4591    -1.9117     0.3451 H       
  35 H35           -4.3885    -0.4328     0.6882 H       
  36 H36            3.6580    -1.6057    -0.0190 H       
  37 H37            5.2702    -0.5271    -1.3242 H       
  38 H38            3.9632     0.6747    -1.5633 H       
  39 H39            3.8233     0.1619     2.2747 H       
  40 H40            5.9309     1.1483     2.1012 H       
  41 H41            6.5915    -0.2091     1.1364 H       
  42 H42            6.3208     1.4943    -0.5441 H       
  43 H43            4.8005     2.0976     0.1944 H       
  44 H44            5.2764    -1.6074     2.9578 H       
  45 H45           -4.6055     1.4262     0.0627 H       
  46 H46           -0.4093     4.0574     0.0530 H       
  47 H47           -4.6596     3.8610     0.0992 H       
  48 H48           -2.5782     5.1675     0.0938 H       
  49 H49           -2.3391    -1.2459    -2.2136 H       
  50 H50           -3.3090    -2.7166    -1.9614 H       
  51 H51           -3.8994    -0.5135    -3.9905 H       
  52 H52           -3.2314    -2.1218    -4.3621 H       
  53 H53           -5.2696    -3.1938    -3.4767 H       
  54 H54           -6.2406    -0.3323    -3.0359 H       
  55 H55           -7.1832    -1.8159    -2.7508 H       
  56 H56           -5.5367    -2.5442    -1.0530 H       
  57 H57           -6.2029    -0.9468    -0.6381 H       
  58 H58           -6.2694    -3.9773    -5.3902 H       
  59 H59           -7.6019    -2.9883    -4.7463 H       
  60 H60           -7.1091    -2.8181    -6.4482 H       
@<TRIPOS>BOND
   1    1    6 ar
   2    1    7 1
   3    1    2 ar
   4    2    3 ar
   5    2   21 ar
   6    3    4 ar
   7    3   20 ar
   8    4    5 ar
   9    4   11 1
  10    5    6 ar
  11    5   31 1
  12    6   10 1
  13    7    8 1
  14    8    9 1
  15    8   32 1
  16    8   33 1
  17    9   10 am
  18    9   14 1
  19   10   13 2
  20   11   12 1
  21   11   34 1
  22   11   35 1
  23   12   28 1
  24   12   24 1
  25   14   16 1
  26   14   15 1
  27   14   36 1
  28   15   18 1
  29   15   37 1
  30   15   38 1
  31   16   17 1
  32   16   19 1
  33   16   39 1
  34   17   18 1
  35   17   40 1
  36   17   41 1
  37   18   42 1
  38   18   43 1
  39   19   44 1
  40   20   22 ar
  41   20   45 1
  42   21   23 ar
  43   21   46 1
  44   22   23 ar
  45   22   47 1
  46   23   48 1
  47   24   25 1
  48   24   49 1
  49   24   50 1
  50   25   26 1
  51   25   51 1
  52   25   52 1
  53   26   27 1
  54   26   29 1
  55   26   53 1
  56   27   28 1
  57   27   54 1
  58   27   55 1
  59   28   56 1
  60   28   57 1
  61   29   30 1
  62   30   58 1
  63   30   59 1
  64   30   60 1

#	End of record

