#	Name: ASD01148667
#	Creating user name:	WinNT
#	Creation time:	15. 06. 2019 19:03

#	Modifying user name:	WinNT
#	Modification time:	15. 06. 2019 19:03

#	Program:	/corina/corina34_cracker 3.40 0067  02.08.2006

@<TRIPOS>MOLECULE
ASD01148667
  50   52    0    0    0
SMALL
NO_CHARGES


@<TRIPOS>ATOM
   1 N1             3.2525    -1.2961    -3.3727 N.am    
   2 N2             2.9661    -1.3035    -2.0013 N.am    
   3 C3             3.7449    -2.1509    -1.0948 C.3     
   4 C4             2.7037    -2.3404    -4.2412 C.3     
   5 C5             1.9741    -0.5310    -1.5159 C.2     
   6 C6             1.1429     0.2671    -2.4368 C.ar    
   7 C7             0.1805    -0.3604    -3.2421 C.ar    
   8 C8            -0.5964     0.4015    -4.1057 C.ar    
   9 C9            -0.4206     1.7699    -4.1695 C.ar    
  10 C10            0.5293     2.3926    -3.3752 C.ar    
  11 C11            1.3054     1.6524    -2.5081 C.ar    
  12 O12            1.7642    -0.4919    -0.3188 O.2     
  13 N13            0.0053    -1.7402    -3.1764 N.am    
  14 C14           -0.2102    -2.3362    -1.9869 C.2     
  15 O15           -0.3405    -1.6614    -0.9832 O.2     
  16 N16           -0.4173    -5.8980    -1.1310 N.2     
  17 N17           -0.3579    -4.5498    -0.7564 N.pl3   
  18 C18           -0.2879    -3.8021    -1.9025 C.2     
  19 C19           -0.3045    -4.6858    -2.9629 C.2     
  20 C20           -0.3855    -5.9749    -2.4386 C.2     
  21 C21           -0.3685    -4.0562     0.5505 C.ar    
  22 C22           -0.5727    -4.9281     1.6148 C.ar    
  23 C23           -0.5803    -4.4249     2.9053 C.ar    
  24 C24           -0.3828    -3.0631     3.0857 C.ar    
  25 C25           -0.1861    -2.2562     1.9818 C.ar    
  26 N26           -0.1789    -2.7644     0.7648 N.ar    
  27 Cl27          -0.8151    -6.6233     1.3297 Cl      
  28 Br28          -0.4404    -7.5725    -3.4488 Br      
  29 Br29           0.7570     4.2672    -3.4752 Br      
  30 Br30          -1.8955    -0.4359    -5.1952 Br      
  31 C31            4.0285    -0.3251    -3.8938 C.2     
  32 O32            4.2769    -0.3187    -5.0832 O.2     
  33 O33            4.5283     0.6378    -3.0965 O.3     
  34 C34            5.3558     1.6513    -3.7261 C.3     
  35 H35            4.5686    -1.5733    -0.6754 H       
  36 H36            3.1031    -2.5067    -0.2888 H       
  37 H37            4.1423    -3.0032    -1.6459 H       
  38 H38            1.7203    -2.0356    -4.5992 H       
  39 H39            3.3687    -2.4925    -5.0914 H       
  40 H40            2.6138    -3.2701    -3.6794 H       
  41 H41           -1.0266     2.3582    -4.8426 H       
  42 H42            2.0411     2.1429    -1.8880 H       
  43 H43            0.0384    -2.2724    -3.9866 H       
  44 H44           -0.2624    -4.4254    -4.0102 H       
  45 H45           -0.7367    -5.0773     3.7517 H       
  46 H46           -0.3833    -2.6386     4.0788 H       
  47 H47           -0.0320    -1.1959     2.1175 H       
  48 H48            4.7753     2.1731    -4.4869 H       
  49 H49            5.6926     2.3643    -2.9735 H       
  50 H50            6.2206     1.1773    -4.1904 H       
@<TRIPOS>BOND
   1    1    2 1
   2    1    4 1
   3    1   31 am
   4    2    3 1
   5    2    5 am
   6    3   35 1
   7    3   36 1
   8    3   37 1
   9    4   38 1
  10    4   39 1
  11    4   40 1
  12    5    6 1
  13    5   12 2
  14    6    7 ar
  15    6   11 ar
  16    7    8 ar
  17    7   13 1
  18    8    9 ar
  19    8   30 1
  20    9   10 ar
  21    9   41 1
  22   10   11 ar
  23   10   29 1
  24   11   42 1
  25   13   14 am
  26   13   43 1
  27   14   15 2
  28   14   18 1
  29   16   17 1
  30   16   20 2
  31   17   18 1
  32   17   21 1
  33   18   19 2
  34   19   20 1
  35   19   44 1
  36   20   28 1
  37   21   22 ar
  38   21   26 ar
  39   22   23 ar
  40   22   27 1
  41   23   24 ar
  42   23   45 1
  43   24   25 ar
  44   24   46 1
  45   25   26 ar
  46   25   47 1
  47   31   32 2
  48   31   33 1
  49   33   34 1
  50   34   48 1
  51   34   49 1
  52   34   50 1

#	End of record

