#	Name: ASD01840452
#	Creating user name:	WinNT
#	Creation time:	15. 06. 2019 19:37

#	Modifying user name:	WinNT
#	Modification time:	15. 06. 2019 19:37

#	Program:	/corina/corina34_cracker 3.40 0067  02.08.2006

@<TRIPOS>MOLECULE
ASD01840452
  48   51    0    0    0
SMALL
NO_CHARGES


@<TRIPOS>ATOM
   1 C1             0.2611     1.7552    -0.9980 C.ar    
   2 C2             0.3841     0.5320    -1.6195 C.ar    
   3 N3             1.4990    -0.1677    -1.4965 N.ar    
   4 N4             2.4999     0.2427    -0.8111 N.ar    
   5 C5             1.3546     2.2267    -0.2364 C.ar    
   6 C6             1.5104     3.4570     0.5171 C.2     
   7 C7             2.4928     1.4121    -0.1670 C.ar    
   8 S8             3.7250     2.1824     0.8223 S.3     
   9 C9             2.7118     3.5783     1.1344 C.2     
  10 C10           -0.9999     2.5697    -1.1313 C.3     
  11 C11           -0.7562    -0.0106    -2.4419 C.3     
  12 N12            0.5179     4.4243     0.5985 N.pl3   
  13 C13            3.1102     4.7236     1.9514 C.2     
  14 O14            2.3404     5.6527     2.1138 O.2     
  15 N15            4.3297     4.7507     2.5248 N.am    
  16 C16            5.0757     5.6831     3.3831 C.3     
  17 C17            5.4973     3.8578     2.5728 C.3     
  18 C18            5.8492     4.4755     3.9303 C.3     
  19 C19            7.3435     4.7296     4.1388 C.3     
  20 C20            7.5318     5.8732     5.1376 C.3     
  21 C21            9.0261     6.1273     5.3461 C.3     
  22 C22            9.6878     4.8600     5.8911 C.3     
  23 C23            9.4994     3.7164     4.8922 C.3     
  24 C24            8.0052     3.4623     4.6838 C.3     
  25 H25           -1.6441     2.3852    -0.2716 H       
  26 H26           -0.7456     3.6287    -1.1742 H       
  27 H27           -1.5220     2.2841    -2.0445 H       
  28 H28           -0.6493     0.3210    -3.4747 H       
  29 H29           -0.7433    -1.1000    -2.4068 H       
  30 H30           -1.7008     0.3547    -2.0389 H       
  31 H31           -0.4028     4.1923     0.4002 H       
  32 H32            0.7452     5.3322     0.8537 H       
  33 H33            5.6996     6.3818     2.8256 H       
  34 H34            4.4548     6.1761     4.1311 H       
  35 H35            5.2341     2.8018     2.6332 H       
  36 H36            6.2346     4.0653     1.7972 H       
  37 H37            5.3708     3.9852     4.7782 H       
  38 H38            7.8024     4.9988     3.1875 H       
  39 H39            7.0604     6.7760     4.7494 H       
  40 H40            7.0729     5.6040     6.0889 H       
  41 H41            9.4851     6.3965     4.3948 H       
  42 H42            9.1603     6.9420     6.0577 H       
  43 H43           10.7524     5.0411     6.0396 H       
  44 H44            9.2288     4.5908     6.8424 H       
  45 H45            9.9584     3.9856     3.9409 H       
  46 H46            9.9708     2.8136     5.2805 H       
  47 H47            7.5462     3.1931     5.6351 H       
  48 H48            7.8710     2.6476     3.9722 H       
@<TRIPOS>BOND
   1    1    2 ar
   2    1    5 ar
   3    1   10 1
   4    2   11 1
   5    2    3 ar
   6    3    4 ar
   7    4    7 ar
   8    5    7 ar
   9    5    6 1
  10    6    9 2
  11    6   12 1
  12    7    8 1
  13    8    9 1
  14    9   13 1
  15   10   25 1
  16   10   26 1
  17   10   27 1
  18   11   28 1
  19   11   29 1
  20   11   30 1
  21   12   31 1
  22   12   32 1
  23   13   14 2
  24   13   15 am
  25   15   16 1
  26   15   17 1
  27   16   18 1
  28   16   33 1
  29   16   34 1
  30   17   18 1
  31   17   35 1
  32   17   36 1
  33   18   19 1
  34   18   37 1
  35   19   20 1
  36   19   24 1
  37   19   38 1
  38   20   21 1
  39   20   39 1
  40   20   40 1
  41   21   22 1
  42   21   41 1
  43   21   42 1
  44   22   23 1
  45   22   43 1
  46   22   44 1
  47   23   24 1
  48   23   45 1
  49   23   46 1
  50   24   47 1
  51   24   48 1

#	End of record

