#	Name: ASD03240393
#	Creating user name:	WinNT
#	Creation time:	15. 06. 2019 20:34

#	Modifying user name:	WinNT
#	Modification time:	15. 06. 2019 20:34

#	Program:	/corina/corina34_cracker 3.40 0067  02.08.2006

@<TRIPOS>MOLECULE
ASD03240393
  34   36    0    0    0
SMALL
NO_CHARGES


@<TRIPOS>ATOM
   1 N1            -0.0161     1.3370     0.0094 N.ar    
   2 C2             0.0021    -0.0041     0.0020 C.ar    
   3 C3             1.2362    -0.6986    -0.0136 C.ar    
   4 C4             2.4675     0.0788    -0.0216 C.ar    
   5 C5             2.3624     1.4734    -0.0135 C.ar    
   6 C6             1.0785     2.0630     0.0028 C.ar    
   7 C7            -1.1916    -0.7415     0.0100 C.ar    
   8 C8            -1.1479    -2.1037     0.0026 C.ar    
   9 C9             0.0665    -2.7818    -0.0128 C.ar    
  10 C10            1.2467    -2.0972    -0.0204 C.ar    
  11 N11            3.8041    -0.2098    -0.0360 N.pl3   
  12 C12            4.4746     0.9749    -0.0365 C.2     
  13 N13            3.6257     1.9624    -0.0233 N.2     
  14 C14            4.4036    -1.5464    -0.0486 C.3     
  15 C15            4.4836    -2.0560    -1.4891 C.3     
  16 C16            5.4441    -1.1740    -2.2893 C.3     
  17 C17            4.9932    -3.4986    -1.4922 C.3     
  18 N18            0.9713     3.4436     0.0108 N.pl3   
  19 H19           -2.1431    -0.2307     0.0223 H       
  20 H20           -2.0704    -2.6653     0.0091 H       
  21 H21            0.0754    -3.8617    -0.0180 H       
  22 H22            2.1845    -2.6327    -0.0326 H       
  23 H23            5.5494     1.0801    -0.0461 H       
  24 H24            5.4062    -1.4990     0.3762 H       
  25 H25            3.7899    -2.2254     0.5434 H       
  26 H26            3.4932    -2.0194    -1.9429 H       
  27 H27            5.5011    -1.5370    -3.3156 H       
  28 H28            5.0811    -0.1463    -2.2871 H       
  29 H29            6.4345    -1.2105    -1.8355 H       
  30 H30            4.3088    -4.1269    -0.9220 H       
  31 H31            5.0502    -3.8616    -2.5184 H       
  32 H32            5.9835    -3.5351    -1.0383 H       
  33 H33            1.7712     3.9922     0.0052 H       
  34 H34            0.0962     3.8620     0.0220 H       
@<TRIPOS>BOND
   1    1    2 ar
   2    1    6 ar
   3    2    3 ar
   4    2    7 ar
   5    3    4 ar
   6    3   10 ar
   7    4    5 ar
   8    4   11 1
   9    5    6 ar
  10    5   13 1
  11    6   18 1
  12    7    8 ar
  13    7   19 1
  14    8    9 ar
  15    8   20 1
  16    9   10 ar
  17    9   21 1
  18   10   22 1
  19   11   12 1
  20   11   14 1
  21   12   13 2
  22   12   23 1
  23   14   15 1
  24   14   24 1
  25   14   25 1
  26   15   16 1
  27   15   17 1
  28   15   26 1
  29   16   27 1
  30   16   28 1
  31   16   29 1
  32   17   30 1
  33   17   31 1
  34   17   32 1
  35   18   33 1
  36   18   34 1

#	End of record

