#	Name: ASD01001081
#	Creating user name:	WinNT
#	Creation time:	15. 06. 2019 18:55

#	Modifying user name:	WinNT
#	Modification time:	15. 06. 2019 18:55

#	Program:	/corina/corina34_cracker 3.40 0067  02.08.2006

@<TRIPOS>MOLECULE
ASD01001081
  40   42    0    0    0
SMALL
NO_CHARGES


@<TRIPOS>ATOM
   1 C1            -0.0166     1.3749     0.0096 C.ar    
   2 C2             0.0021    -0.0041     0.0020 C.ar    
   3 C3             1.1854     2.0867     0.0019 C.ar    
   4 C4             1.2077    -0.6836    -0.0127 C.ar    
   5 C5             2.3995     1.3943    -0.0134 C.ar    
   6 C6             1.1733     3.5612     0.0095 C.2     
   7 C7             2.4024     0.0135    -0.0203 C.ar    
   8 N8             2.2192     4.3131     0.0030 N.2     
   9 N9             1.9393     5.6780     0.0127 N.am    
  10 C10            0.4797     5.8643     0.0279 C.3     
  11 C11           -0.0686     4.4235     0.0194 C.3     
  12 C12            2.8557     6.6663     0.0094 C.2     
  13 C13            0.0510     6.5932     1.2753 C.ar    
  14 C14            0.6674     6.3187     2.4819 C.ar    
  15 C15            0.2760     6.9856     3.6284 C.ar    
  16 C16           -0.7322     7.9279     3.5705 C.ar    
  17 C17           -1.3521     8.2055     2.3606 C.ar    
  18 C18           -0.9538     7.5393     1.2110 C.ar    
  19 C19            4.3250     6.3314    -0.0064 C.3     
  20 O20            2.4979     7.8253     0.0191 O.2     
  21 Cl21           3.8997     2.2679    -0.0236 Cl      
  22 O22           -2.3447     9.1319     2.3012 O.3     
  23 C23            5.1428     7.6245    -0.0071 C.3     
  24 H24           -0.9585     1.9033     0.0169 H       
  25 H25           -0.9267    -0.5552     0.0079 H       
  26 H26            1.2157    -1.7636    -0.0178 H       
  27 H27            3.3394    -0.5234    -0.0318 H       
  28 H28            0.1521     6.4005    -0.8627 H       
  29 H29           -0.6698     4.2484    -0.8728 H       
  30 H30           -0.6532     4.2316     0.9192 H       
  31 H31            1.4557     5.5820     2.5292 H       
  32 H32            0.7589     6.7691     4.5699 H       
  33 H33           -1.0380     8.4479     4.4663 H       
  34 H34           -1.4348     7.7536     0.2681 H       
  35 H35            4.5735     5.7448     0.8781 H       
  36 H36            4.5566     5.7545    -0.9018 H       
  37 H37           -2.0342    10.0300     2.1223 H       
  38 H38            6.2055     7.3822    -0.0185 H       
  39 H39            4.8943     8.2110    -0.8916 H       
  40 H40            4.9112     8.2013     0.8883 H       
@<TRIPOS>BOND
   1    1    2 ar
   2    1    3 ar
   3    1   24 1
   4    2    4 ar
   5    2   25 1
   6    3    6 1
   7    3    5 ar
   8    4    7 ar
   9    4   26 1
  10    5   21 1
  11    5    7 ar
  12    6    8 2
  13    6   11 1
  14    7   27 1
  15    8    9 1
  16    9   10 1
  17    9   12 am
  18   10   11 1
  19   10   13 1
  20   10   28 1
  21   11   29 1
  22   11   30 1
  23   12   19 1
  24   12   20 2
  25   13   14 ar
  26   13   18 ar
  27   14   15 ar
  28   14   31 1
  29   15   16 ar
  30   15   32 1
  31   16   17 ar
  32   16   33 1
  33   17   18 ar
  34   17   22 1
  35   18   34 1
  36   19   23 1
  37   19   35 1
  38   19   36 1
  39   22   37 1
  40   23   38 1
  41   23   39 1
  42   23   40 1

#	End of record

