#	Name: ASD00069193
#	Creating user name:	WinNT
#	Creation time:	15. 06. 2019 18:29

#	Modifying user name:	WinNT
#	Modification time:	15. 06. 2019 18:29

#	Program:	/corina/corina34_cracker 3.40 0067  02.08.2006

@<TRIPOS>MOLECULE
ASD00069193
  72   76    0    0    0
SMALL
NO_CHARGES


@<TRIPOS>ATOM
   1 C1            -0.1025     1.2043    -0.5204 C.2     
   2 N2            -0.0060     0.0017     0.0016 N.2     
   3 C3             1.2396    -0.4542    -0.1807 C.2     
   4 C4             1.9490     0.5073    -0.8452 C.2     
   5 N5             1.1083     1.5443    -1.0572 N.pl3   
   6 C6            -1.3148     2.0432    -0.5309 C.2     
   7 O7            -1.2874     3.1450    -1.0453 O.2     
   8 N8            -2.4533     1.5893     0.0296 N.am    
   9 C9             1.4602    -3.8919     1.3301 C.ar    
  10 C10            0.9367    -2.6776     0.9368 C.ar    
  11 C11            1.7592    -1.7713     0.2616 C.ar    
  12 C12            3.0850    -2.1401     0.0142 C.ar    
  13 C13            3.5271    -3.3744     0.4423 C.ar    
  14 N14            2.7176    -4.2012     1.0768 N.ar    
  15 C15            0.5860    -4.8757     2.0642 C.3     
  16 C16           -3.5699     2.4292     0.1256 C.ar    
  17 C17           -4.8547     1.8991     0.0157 C.ar    
  18 C18           -5.9574     2.7375     0.1122 C.ar    
  19 C19           -5.7781     4.0947     0.3169 C.ar    
  20 C20           -4.5032     4.6187     0.4252 C.ar    
  21 C21           -3.4005     3.7899     0.3359 C.ar    
  22 N22           -5.0326     0.5253    -0.1919 N.3     
  23 C23           -5.8079    -0.0760     0.9006 C.3     
  24 C24           -5.8581    -1.5944     0.7168 C.3     
  25 C25           -6.5055    -1.9192    -0.6323 C.3     
  26 C26           -5.7068    -1.2414    -1.7491 C.3     
  27 C27           -5.6610     0.2668    -1.4938 C.3     
  28 C28           -6.5035    -3.4110    -0.8458 C.2     
  29 O29           -5.6104    -3.9316    -1.4800 O.2     
  30 N30           -7.4942    -4.1666    -0.3319 N.am    
  31 C31           -7.4597    -5.6340    -0.4364 C.3     
  32 C32           -7.7033    -6.2238     0.9574 C.3     
  33 O33           -8.8934    -5.6543     1.5081 O.3     
  34 C34           -8.8280    -4.2400     1.7062 C.3     
  35 C35           -8.6392    -3.5489     0.3556 C.3     
  36 C36           -7.8658    -7.7413     0.8490 C.3     
  37 C37           -7.9842    -8.3430     2.2507 C.3     
  38 O38           -8.1360    -9.7603     2.1493 O.3     
  39 F39           -7.2045     2.2289     0.0060 F       
  40 H40            2.9852     0.4494    -1.1440 H       
  41 H41            1.3241     2.3760    -1.5072 H       
  42 H42           -2.4994     0.6808     0.3665 H       
  43 H43           -0.0936    -2.4311     1.1470 H       
  44 H44            3.7529    -1.4686    -0.5048 H       
  45 H45            4.5494    -3.6683     0.2555 H       
  46 H46            0.0886    -5.5267     1.3453 H       
  47 H47            1.1997    -5.4770     2.7350 H       
  48 H48           -0.1625    -4.3349     2.6434 H       
  49 H49           -6.6363     4.7460     0.3919 H       
  50 H50           -4.3685     5.6784     0.5846 H       
  51 H51           -2.4065     4.2025     0.4259 H       
  52 H52           -5.3346     0.1590     1.8540 H       
  53 H53           -6.8215     0.3248     0.8901 H       
  54 H54           -4.8457    -1.9976     0.7410 H       
  55 H55           -6.4468    -2.0389     1.5193 H       
  56 H56           -7.5311    -1.5502    -0.6424 H       
  57 H57           -4.6920    -1.6390    -1.7636 H       
  58 H58           -6.1874    -1.4336    -2.7084 H       
  59 H59           -6.6753     0.6660    -1.4931 H       
  60 H60           -5.0810     0.7508    -2.2795 H       
  61 H61           -8.2391    -5.9718    -1.1193 H       
  62 H62           -6.4846    -5.9530    -0.8047 H       
  63 H63           -6.8564    -5.9928     1.6036 H       
  64 H64           -9.7529    -3.8939     2.1675 H       
  65 H65           -7.9853    -4.0018     2.3551 H       
  66 H66           -8.4449    -2.4877     0.5116 H       
  67 H67           -9.5394    -3.6732    -0.2462 H       
  68 H68           -8.7655    -7.9705     0.2779 H       
  69 H69           -6.9974    -8.1645     0.3441 H       
  70 H70           -7.0845    -8.1138     2.8217 H       
  71 H71           -8.8526    -7.9198     2.7555 H       
  72 H72           -8.2171   -10.2092     3.0020 H       
@<TRIPOS>BOND
   1    1    2 2
   2    1    5 1
   3    1    6 1
   4    2    3 1
   5    3    4 2
   6    3   11 1
   7    4    5 1
   8    4   40 1
   9    5   41 1
  10    6    7 2
  11    6    8 am
  12    8   16 1
  13    8   42 1
  14    9   10 ar
  15    9   14 ar
  16    9   15 1
  17   10   11 ar
  18   10   43 1
  19   11   12 ar
  20   12   13 ar
  21   12   44 1
  22   13   14 ar
  23   13   45 1
  24   15   46 1
  25   15   47 1
  26   15   48 1
  27   16   17 ar
  28   16   21 ar
  29   17   18 ar
  30   17   22 1
  31   18   19 ar
  32   18   39 1
  33   19   20 ar
  34   19   49 1
  35   20   21 ar
  36   20   50 1
  37   21   51 1
  38   22   23 1
  39   22   27 1
  40   23   24 1
  41   23   52 1
  42   23   53 1
  43   24   25 1
  44   24   54 1
  45   24   55 1
  46   25   26 1
  47   25   28 1
  48   25   56 1
  49   26   27 1
  50   26   57 1
  51   26   58 1
  52   27   59 1
  53   27   60 1
  54   28   29 2
  55   28   30 am
  56   30   31 1
  57   30   35 1
  58   31   32 1
  59   31   61 1
  60   31   62 1
  61   32   33 1
  62   32   36 1
  63   32   63 1
  64   33   34 1
  65   34   35 1
  66   34   64 1
  67   34   65 1
  68   35   66 1
  69   35   67 1
  70   36   37 1
  71   36   68 1
  72   36   69 1
  73   37   38 1
  74   37   70 1
  75   37   71 1
  76   38   72 1

#	End of record

