#	Name: ASD01120265
#	Creating user name:	WinNT
#	Creation time:	15. 06. 2019 18:59

#	Modifying user name:	WinNT
#	Modification time:	15. 06. 2019 18:59

#	Program:	/corina/corina34_cracker 3.40 0067  02.08.2006

@<TRIPOS>MOLECULE
ASD01120265
  27   28    0    0    0
SMALL
NO_CHARGES


@<TRIPOS>ATOM
   1 C1            -0.0187     1.5258     0.0104 C.3     
   2 C2             0.0021    -0.0041     0.0020 C.3     
   3 O3            -1.3601    -0.5067     0.0123 O.3     
   4 C4            -1.5187    -1.8457     0.0066 C.2     
   5 O5            -0.5446    -2.5731    -0.0066 O.2     
   6 C6            -2.8683    -2.4256     0.0164 C.2     
   7 C7            -3.1554    -3.7545     0.0125 C.2     
   8 C8            -4.5642    -3.8909     0.0259 C.ar    
   9 C9            -5.1033    -2.5895     0.0379 C.ar    
  10 N10           -4.0488    -1.7076     0.0371 N.pl3   
  11 C11           -6.4854    -2.4217     0.0526 C.ar    
  12 C12           -7.3088    -3.5249     0.0552 C.ar    
  13 C13           -6.7747    -4.8076     0.0433 C.ar    
  14 C14           -5.4237    -4.9976     0.0284 C.ar    
  15 N15           -7.0677    -1.0609     0.0659 N.pl3   
  16 O16           -8.2770    -0.9160     0.0787 O.2     
  17 O17           -6.3376    -0.0860     0.0640 O.2     
  18 H18            1.0039     1.9031     0.0027 H       
  19 H19           -0.5459     1.8868    -0.8726 H       
  20 H20           -0.5289     1.8773     0.9072 H       
  21 H21            0.5123    -0.3556    -0.8948 H       
  22 H22            0.5293    -0.3651     0.8851 H       
  23 H23           -2.4374    -4.5612     0.0009 H       
  24 H24           -4.1215    -0.7403     0.0440 H       
  25 H25           -8.3806    -3.3922     0.0669 H       
  26 H26           -7.4351    -5.6621     0.0455 H       
  27 H27           -5.0178    -5.9983     0.0194 H       
@<TRIPOS>BOND
   1    1    2 1
   2    1   18 1
   3    1   19 1
   4    1   20 1
   5    2    3 1
   6    2   21 1
   7    2   22 1
   8    3    4 1
   9    4    5 2
  10    4    6 1
  11    6    7 2
  12    6   10 1
  13    7    8 1
  14    7   23 1
  15    8    9 ar
  16    8   14 ar
  17    9   10 1
  18    9   11 ar
  19   10   24 1
  20   11   12 ar
  21   11   15 1
  22   12   13 ar
  23   12   25 1
  24   13   14 ar
  25   13   26 1
  26   14   27 1
  27   15   16 2
  28   15   17 2

#	End of record

