#	Name: ASD01910110
#	Creating user name:	WinNT
#	Creation time:	15. 06. 2019 19:55

#	Modifying user name:	WinNT
#	Modification time:	15. 06. 2019 19:55

#	Program:	/corina/corina34_cracker 3.40 0067  02.08.2006

@<TRIPOS>MOLECULE
ASD01910110
  45   48    0    0    0
SMALL
NO_CHARGES


@<TRIPOS>ATOM
   1 C1             0.9387     0.3037     1.0418 C.ar    
   2 C2             1.2535    -1.0418     1.0483 C.ar    
   3 C3             2.5472    -1.4622     0.7794 C.ar    
   4 C4             3.5298    -0.5260     0.5021 C.ar    
   5 C5             3.2085     0.8467     0.4950 C.ar    
   6 C6             1.9118     1.2520     0.7659 C.ar    
   7 C7             4.9702    -0.6057     0.1801 C.2     
   8 N8             5.4392     0.6424     0.0010 N.am    
   9 C9             4.4646     1.5543     0.1689 C.2     
  10 C10            6.8286     0.9659    -0.3321 C.3     
  11 C11            7.0277     0.8519    -1.8215 C.ar    
  12 C12            6.6735     1.9064    -2.6527 C.ar    
  13 C13            6.8583     1.7980    -4.0252 C.ar    
  14 C14            7.3934     0.6426    -4.5594 C.ar    
  15 C15            7.7452    -0.4071    -3.7286 C.ar    
  16 C16            7.5679    -0.2994    -2.3606 C.ar    
  17 N17            6.1311     3.0756    -2.1089 N.am    
  18 C18            5.3729     3.8859    -2.8738 C.2     
  19 C19            4.8931     5.1757    -2.3341 C.ar    
  20 C20            5.8031     6.1082    -1.8338 C.ar    
  21 C21            5.3486     7.3104    -1.3319 C.ar    
  22 C22            3.9942     7.5922    -1.3235 C.ar    
  23 C23            3.0866     6.6718    -1.8176 C.ar    
  24 C24            3.5281     5.4688    -2.3279 C.ar    
  25 O25            5.0836     3.5561    -4.0075 O.2     
  26 O26            4.5951     2.7577     0.0697 O.2     
  27 O27            5.6216    -1.6270     0.0925 O.2     
  28 Cl28           8.4166    -1.8587    -4.4037 Cl      
  29 N29            2.5559     4.4855    -2.8559 N.pl3   
  30 O30            1.3627     4.7264    -2.8148 O.2     
  31 O31            2.9491     3.4354    -3.3316 O.2     
  32 H32           -0.0735     0.6185     1.2487 H       
  33 H33            0.4868    -1.7710     1.2646 H       
  34 H34            2.7877    -2.5150     0.7865 H       
  35 H35            1.6598     2.3022     0.7615 H       
  36 H36            7.0512     1.9840    -0.0127 H       
  37 H37            7.4958     0.2710     0.1779 H       
  38 H38            6.5833     2.6165    -4.6739 H       
  39 H39            7.5373     0.5578    -5.6264 H       
  40 H40            7.8432    -1.1200    -1.7146 H       
  41 H41            6.3008     3.3032    -1.1814 H       
  42 H42            6.8606     5.8891    -1.8392 H       
  43 H43            6.0517     8.0328    -0.9445 H       
  44 H44            3.6436     8.5345    -0.9292 H       
  45 H45            2.0306     6.8978    -1.8078 H       
@<TRIPOS>BOND
   1    1    2 ar
   2    1    6 ar
   3    1   32 1
   4    2    3 ar
   5    2   33 1
   6    3    4 ar
   7    3   34 1
   8    4    5 ar
   9    4    7 1
  10    5    6 ar
  11    5    9 1
  12    6   35 1
  13    7    8 am
  14    7   27 2
  15    8    9 am
  16    8   10 1
  17    9   26 2
  18   10   11 1
  19   10   36 1
  20   10   37 1
  21   11   12 ar
  22   11   16 ar
  23   12   13 ar
  24   12   17 1
  25   13   14 ar
  26   13   38 1
  27   14   15 ar
  28   14   39 1
  29   15   16 ar
  30   15   28 1
  31   16   40 1
  32   17   18 am
  33   17   41 1
  34   18   19 1
  35   18   25 2
  36   19   20 ar
  37   19   24 ar
  38   20   21 ar
  39   20   42 1
  40   21   22 ar
  41   21   43 1
  42   22   23 ar
  43   22   44 1
  44   23   24 ar
  45   23   45 1
  46   24   29 1
  47   29   30 2
  48   29   31 2

#	End of record

