#	Name: ASD01148789
#	Creating user name:	WinNT
#	Creation time:	15. 06. 2019 19:03

#	Modifying user name:	WinNT
#	Modification time:	15. 06. 2019 19:03

#	Program:	/corina/corina34_cracker 3.40 0067  02.08.2006

@<TRIPOS>MOLECULE
ASD01148789
  57   60    0    0    0
SMALL
NO_CHARGES


@<TRIPOS>ATOM
   1 N1             0.0433     1.3921    -0.2310 N.pl3   
   2 C2            -0.0128     0.0402    -0.1852 C.2     
   3 C3             1.2405    -0.4490     0.1114 C.2     
   4 C4             2.1184     0.7244     0.2539 C.2     
   5 C5             1.3184     1.8277     0.0306 C.2     
   6 C6             1.6243    -1.8604     0.2573 C.2     
   7 O7             2.0091    -2.4887    -0.7096 O.2     
   8 O8             1.5497    -2.4580     1.4633 O.3     
   9 C9            -1.0451     2.2281    -0.5117 C.ar    
  10 C10           -2.1001     2.3218     0.3862 C.ar    
  11 C11           -3.1719     3.1469     0.1065 C.ar    
  12 C12           -3.1949     3.8792    -1.0663 C.ar    
  13 C13           -2.1458     3.7880    -1.9625 C.ar    
  14 C14           -1.0685     2.9691    -1.6858 C.ar    
  15 S15           -4.5642     4.9303    -1.4197 S.o2    
  16 O16           -4.5920     5.0922    -2.8311 O.2     
  17 O17           -5.6623     4.4232    -0.6738 O.2     
  18 N18           -4.2157     6.4196    -0.7849 N.am    
  19 C19           -1.2457    -0.7939    -0.4199 C.3     
  20 C20            3.5640     0.7220     0.5723 C.ar    
  21 C21            4.4806     0.1958    -0.3383 C.ar    
  22 C22            5.8281     0.1966    -0.0362 C.ar    
  23 C23            6.2699     0.7179     1.1679 C.ar    
  24 C24            5.3648     1.2414     2.0754 C.ar    
  25 C25            4.0155     1.2512     1.7815 C.ar    
  26 Cl26           5.9278     1.8925     3.5830 Cl      
  27 Cl27           6.9701    -0.4578    -1.1680 Cl      
  28 C28            1.7597     3.2362     0.0669 C.ar    
  29 C29            1.0974     4.1577     0.8811 C.ar    
  30 C30            1.5148     5.4719     0.9110 C.ar    
  31 C31            2.5880     5.8784     0.1359 C.ar    
  32 C32            3.2486     4.9697    -0.6739 C.ar    
  33 C33            2.8447     3.6515    -0.7083 C.ar    
  34 Cl34           3.1072     7.5344     0.1791 Cl      
  35 C35            1.9447    -3.8535     1.5331 C.3     
  36 C36            1.7938    -4.3550     2.9707 C.3     
  37 H37           -2.0829     1.7498     1.3021 H       
  38 H38           -3.9929     3.2199     0.8043 H       
  39 H39           -2.1668     4.3610    -2.8777 H       
  40 H40           -0.2472     2.9019    -2.3839 H       
  41 H41           -3.3753     6.5652    -0.3229 H       
  42 H42           -4.8518     7.1462    -0.8752 H       
  43 H43           -1.3229    -1.0381    -1.4793 H       
  44 H44           -1.1782    -1.7137     0.1611 H       
  45 H45           -2.1280    -0.2331    -0.1111 H       
  46 H46            4.1370    -0.2118    -1.2776 H       
  47 H47            7.3246     0.7158     1.4003 H       
  48 H48            3.3108     1.6639     2.4882 H       
  49 H49            0.2601     3.8420     1.4858 H       
  50 H50            1.0033     6.1855     1.5399 H       
  51 H51            4.0844     5.2931    -1.2765 H       
  52 H52            3.3636     2.9427    -1.3366 H       
  53 H53            1.3091    -4.4444     0.8736 H       
  54 H54            2.9842    -3.9529     1.2208 H       
  55 H55            2.4294    -3.7641     3.6302 H       
  56 H56            0.7542    -4.2556     3.2830 H       
  57 H57            2.0903    -5.4026     3.0230 H       
@<TRIPOS>BOND
   1    1    2 1
   2    1    5 1
   3    1    9 1
   4    2    3 2
   5    2   19 1
   6    3    4 1
   7    3    6 1
   8    4    5 2
   9    4   20 1
  10    5   28 1
  11    6    7 2
  12    6    8 1
  13    8   35 1
  14    9   10 ar
  15    9   14 ar
  16   10   11 ar
  17   10   37 1
  18   11   12 ar
  19   11   38 1
  20   12   13 ar
  21   12   15 1
  22   13   14 ar
  23   13   39 1
  24   14   40 1
  25   15   16 2
  26   15   17 2
  27   15   18 am
  28   18   41 1
  29   18   42 1
  30   19   43 1
  31   19   44 1
  32   19   45 1
  33   20   21 ar
  34   20   25 ar
  35   21   22 ar
  36   21   46 1
  37   22   23 ar
  38   22   27 1
  39   23   24 ar
  40   23   47 1
  41   24   25 ar
  42   24   26 1
  43   25   48 1
  44   28   29 ar
  45   28   33 ar
  46   29   30 ar
  47   29   49 1
  48   30   31 ar
  49   30   50 1
  50   31   32 ar
  51   31   34 1
  52   32   33 ar
  53   32   51 1
  54   33   52 1
  55   35   36 1
  56   35   53 1
  57   35   54 1
  58   36   55 1
  59   36   56 1
  60   36   57 1

#	End of record

