#	Name: ASD07930953
#	Creating user name:	WinNT
#	Creation time:	15. 06. 2019 21:13

#	Modifying user name:	WinNT
#	Modification time:	15. 06. 2019 21:13

#	Program:	/corina/corina34_cracker 3.40 0067  02.08.2006

@<TRIPOS>MOLECULE
ASD07930953
  35   36    0    0    0
SMALL
NO_CHARGES


@<TRIPOS>ATOM
   1 N1            -0.0160     1.3293     0.0094 N.am    
   2 C2             0.0935     0.1837    -0.6643 C.2     
   3 C3             1.3566    -0.6266    -0.7222 C.3     
   4 C4             2.5485     0.2360    -0.2997 C.3     
   5 C5             2.1916     0.9471     1.0111 C.3     
   6 C6             1.0812     1.9607     0.7317 C.3     
   7 C7             3.7581    -0.6380    -0.0898 C.2     
   8 O8             4.2959    -0.6756     0.9915 O.2     
   9 O9             4.2380    -1.3746    -1.1041 O.3     
  10 C10           -1.2609     1.9682     0.0186 C.ar    
  11 C11           -1.5697     2.9045    -0.9594 C.ar    
  12 C12           -2.7995     3.5331    -0.9478 C.ar    
  13 C13           -3.7226     3.2312     0.0366 C.ar    
  14 C14           -3.4181     2.2993     1.0118 C.ar    
  15 C15           -2.1923     1.6631     1.0024 C.ar    
  16 O16           -0.8792    -0.2261    -1.2619 O.2     
  17 C17            5.4057    -2.1928    -0.8297 C.3     
  18 C18            5.8037    -2.9545    -2.0955 C.3     
  19 H19            1.2706    -1.4798    -0.0494 H       
  20 H20            1.5111    -0.9840    -1.7403 H       
  21 H21            2.7588     0.9751    -1.0727 H       
  22 H22            1.8441     0.2160     1.7410 H       
  23 H23            3.0699     1.4641     1.3976 H       
  24 H24            1.4825     2.7790     0.1339 H       
  25 H25            0.7095     2.3575     1.6765 H       
  26 H26           -0.8489     3.1413    -1.7280 H       
  27 H27           -3.0403     4.2613    -1.7080 H       
  28 H28           -4.6833     3.7246     0.0439 H       
  29 H29           -4.1412     2.0657     1.7792 H       
  30 H30           -1.9566     0.9324     1.7620 H       
  31 H31            6.2312    -1.5541    -0.5154 H       
  32 H32            5.1734    -2.9031    -0.0361 H       
  33 H33            6.6803    -3.5687    -1.8895 H       
  34 H34            4.9782    -3.5933    -2.4098 H       
  35 H35            6.0360    -2.2443    -2.8890 H       
@<TRIPOS>BOND
   1    1    2 am
   2    1    6 1
   3    1   10 1
   4    2    3 1
   5    2   16 2
   6    3    4 1
   7    3   19 1
   8    3   20 1
   9    4    5 1
  10    4    7 1
  11    4   21 1
  12    5    6 1
  13    5   22 1
  14    5   23 1
  15    6   24 1
  16    6   25 1
  17    7    8 2
  18    7    9 1
  19    9   17 1
  20   10   11 ar
  21   10   15 ar
  22   11   12 ar
  23   11   26 1
  24   12   13 ar
  25   12   27 1
  26   13   14 ar
  27   13   28 1
  28   14   15 ar
  29   14   29 1
  30   15   30 1
  31   17   18 1
  32   17   31 1
  33   17   32 1
  34   18   33 1
  35   18   34 1
  36   18   35 1

#	End of record

