#	Name: ASD04230050
#	Creating user name:	WinNT
#	Creation time:	15. 06. 2019 20:48

#	Modifying user name:	WinNT
#	Modification time:	15. 06. 2019 20:48

#	Program:	/corina/corina34_cracker 3.40 0067  02.08.2006

@<TRIPOS>MOLECULE
ASD04230050
  48   51    0    0    0
SMALL
NO_CHARGES


@<TRIPOS>ATOM
   1 C1             1.5360     4.6862     1.7198 C.ar    
   2 C2             2.5439     5.3840     2.3695 C.ar    
   3 C3             3.8005     4.8590     2.4681 C.ar    
   4 C4             4.0825     3.6081     1.9003 C.ar    
   5 C5             3.0564     2.8818     1.2692 C.ar    
   6 C6             1.7832     3.4397     1.1726 C.ar    
   7 C7             5.3934     3.0678     1.9619 C.2     
   8 C8             5.6628     1.9284     1.2155 C.2     
   9 C9             4.5671     1.3877     0.3904 C.2     
  10 O10            3.2979     1.6422     0.7793 O.3     
  11 C11            6.9879     1.2871     1.2463 C.2     
  12 N12            7.2188     0.1818     0.5104 N.am    
  13 O13            7.8740     1.7548     1.9357 O.2     
  14 C14            8.5059    -0.3623     0.4509 C.ar    
  15 C15            8.6753    -1.7390     0.3687 C.ar    
  16 C16            9.9457    -2.2804     0.3102 C.ar    
  17 C17           11.0532    -1.4569     0.3326 C.ar    
  18 C18           10.8928    -0.0743     0.4150 C.ar    
  19 C19            9.6134     0.4724     0.4682 C.ar    
  20 C20           12.0819     0.8121     0.4397 C.ar    
  21 O21            4.7981     0.7334    -0.6092 O.2     
  22 O22            0.7869     2.7610     0.5436 O.3     
  23 C23           13.1352     0.5652     1.3277 C.ar    
  24 N24           14.1938     1.3563     1.3481 N.ar    
  25 C25           14.2996     2.3964     0.5430 C.ar    
  26 C26           13.3005     2.7040    -0.3609 C.ar    
  27 C27           12.1719     1.9030    -0.4261 C.ar    
  28 O28           13.0690    -0.4928     2.1734 O.3     
  29 C29           14.1767    -0.6895     3.0544 C.3     
  30 C30           13.9232    -1.9216     3.9253 C.3     
  31 H31            0.5488     5.1178     1.6445 H       
  32 H32            2.3328     6.3514     2.8009 H       
  33 H33            4.5764     5.4065     2.9824 H       
  34 H34            6.1576     3.5287     2.5701 H       
  35 H35            6.4924    -0.2364     0.0222 H       
  36 H36            7.8121    -2.3878     0.3508 H       
  37 H37           10.0722    -3.3512     0.2471 H       
  38 H38           12.0443    -1.8836     0.2867 H       
  39 H39            9.4840     1.5427     0.5320 H       
  40 H40            0.2742     2.1849     1.1270 H       
  41 H41           15.1815     3.0179     0.5915 H       
  42 H42           13.4003     3.5588    -1.0133 H       
  43 H43           11.3774     2.1224    -1.1239 H       
  44 H44           15.0843    -0.8386     2.4694 H       
  45 H45           14.2948     0.1874     3.6910 H       
  46 H46           13.0157    -1.7725     4.5104 H       
  47 H47           13.8051    -2.7985     3.2887 H       
  48 H48           14.7682    -2.0717     4.5973 H       
@<TRIPOS>BOND
   1    1    2 ar
   2    1    6 ar
   3    1   31 1
   4    2    3 ar
   5    2   32 1
   6    3    4 ar
   7    3   33 1
   8    4    5 ar
   9    4    7 1
  10    5    6 ar
  11    5   10 1
  12    6   22 1
  13    7    8 2
  14    7   34 1
  15    8    9 1
  16    8   11 1
  17    9   10 1
  18    9   21 2
  19   11   12 am
  20   11   13 2
  21   12   14 1
  22   12   35 1
  23   14   15 ar
  24   14   19 ar
  25   15   16 ar
  26   15   36 1
  27   16   17 ar
  28   16   37 1
  29   17   18 ar
  30   17   38 1
  31   18   19 ar
  32   18   20 1
  33   19   39 1
  34   20   23 ar
  35   20   27 ar
  36   22   40 1
  37   23   24 ar
  38   23   28 1
  39   24   25 ar
  40   25   26 ar
  41   25   41 1
  42   26   27 ar
  43   26   42 1
  44   27   43 1
  45   28   29 1
  46   29   30 1
  47   29   44 1
  48   29   45 1
  49   30   46 1
  50   30   47 1
  51   30   48 1

#	End of record

