#	Name: ASD02500355
#	Creating user name:	WinNT
#	Creation time:	15. 06. 2019 20:22

#	Modifying user name:	WinNT
#	Modification time:	15. 06. 2019 20:22

#	Program:	/corina/corina34_cracker 3.40 0067  02.08.2006

@<TRIPOS>MOLECULE
ASD02500355
  60   64    0    0    0
SMALL
NO_CHARGES


@<TRIPOS>ATOM
   1 N1            -2.6670     5.0900    -0.7942 N.ar    
   2 C2            -3.7885     5.7646    -0.7208 C.ar    
   3 C3            -4.6896     5.5776     0.3254 C.ar    
   4 C4            -4.4134     4.6712     1.3090 C.ar    
   5 C5            -3.2083     3.9482     1.2267 C.ar    
   6 C6            -2.8563     3.0004     2.2006 C.ar    
   7 C7            -1.6813     2.3218     2.0855 C.ar    
   8 C8            -0.8227     2.5559     1.0137 C.ar    
   9 C9            -1.1325     3.4676     0.0517 C.ar    
  10 C10           -2.3364     4.1881     0.1355 C.ar    
  11 S11           -0.0280     3.7444    -1.2929 S.o2    
  12 O12            0.1263     5.1527    -1.4021 O.2     
  13 O13            1.0643     2.8551    -1.1046 O.2     
  14 N14           -0.8008     3.2504    -2.6717 N.am    
  15 C15           -1.1907     1.9232    -2.8127 C.ar    
  16 C16           -2.4716     1.6199    -3.2659 C.ar    
  17 C17           -2.8604     0.3073    -3.4065 C.ar    
  18 C18           -1.9677    -0.7219    -3.0937 C.ar    
  19 C19           -0.6821    -0.4141    -2.6389 C.ar    
  20 C20           -0.2973     0.9004    -2.5059 C.ar    
  21 C21           -2.3815    -2.1300    -3.2428 C.2     
  22 O22           -1.5955    -2.9525    -3.6722 O.2     
  23 N23           -3.6307    -2.5049    -2.9032 N.am    
  24 C24           -4.0439    -3.9142    -2.9830 C.3     
  25 C25           -4.6729    -4.3136    -1.6439 C.3     
  26 N26           -5.7474    -3.3691    -1.3102 N.3     
  27 C27           -5.2233    -2.0094    -1.1252 C.3     
  28 C28           -4.6150    -1.5164    -2.4371 C.3     
  29 C29           -6.4890    -3.8136    -0.1226 C.3     
  30 C30           -8.6758    -2.6417    -0.5014 C.ar    
  31 C31           -7.5179    -2.7757     0.2448 C.ar    
  32 C32           -7.3171    -1.9434     1.3343 C.ar    
  33 C33           -8.2912    -1.0029     1.6355 C.ar    
  34 C34           -9.4218    -0.9270     0.8453 C.ar    
  35 N35           -9.5811    -1.7356    -0.1846 N.ar    
  36 Cl36          -8.9370    -3.6730    -1.8732 Cl      
  37 H37           -4.0201     6.4848    -1.4916 H       
  38 H38           -5.6054     6.1491     0.3587 H       
  39 H39           -5.1004     4.5137     2.1274 H       
  40 H40           -3.5134     2.8107     3.0365 H       
  41 H41           -1.4113     1.5928     2.8352 H       
  42 H42            0.1039     2.0053     0.9452 H       
  43 H43           -0.9815     3.8869    -3.3810 H       
  44 H44           -3.1610     2.4155    -3.5070 H       
  45 H45           -3.8544     0.0727    -3.7577 H       
  46 H46            0.0097    -1.2071    -2.3962 H       
  47 H47            0.6973     1.1389    -2.1591 H       
  48 H48           -4.7752    -4.0366    -3.7820 H       
  49 H49           -3.1738    -4.5403    -3.1801 H       
  50 H50           -5.0843    -5.3200    -1.7211 H       
  51 H51           -3.9124    -4.2899    -0.8634 H       
  52 H52           -6.0338    -1.3447    -0.8261 H       
  53 H53           -4.4551    -2.0178    -0.3519 H       
  54 H54           -4.1222    -0.5580    -2.2735 H       
  55 H55           -5.4022    -1.4039    -3.1827 H       
  56 H56           -6.9873    -4.7588    -0.3381 H       
  57 H57           -5.7967    -3.9491     0.7084 H       
  58 H58           -6.4233    -2.0253     1.9350 H       
  59 H59           -8.1674    -0.3383     2.4778 H       
  60 H60          -10.1844    -0.1973     1.0738 H       
@<TRIPOS>BOND
   1    1    2 ar
   2    1   10 ar
   3    2    3 ar
   4    2   37 1
   5    3    4 ar
   6    3   38 1
   7    4    5 ar
   8    4   39 1
   9    5    6 ar
  10    5   10 ar
  11    6    7 ar
  12    6   40 1
  13    7    8 ar
  14    7   41 1
  15    8    9 ar
  16    8   42 1
  17    9   10 ar
  18    9   11 1
  19   11   12 2
  20   11   13 2
  21   11   14 am
  22   14   15 1
  23   14   43 1
  24   15   16 ar
  25   15   20 ar
  26   16   17 ar
  27   16   44 1
  28   17   18 ar
  29   17   45 1
  30   18   19 ar
  31   18   21 1
  32   19   20 ar
  33   19   46 1
  34   20   47 1
  35   21   22 2
  36   21   23 am
  37   23   24 1
  38   23   28 1
  39   24   25 1
  40   24   48 1
  41   24   49 1
  42   25   26 1
  43   25   50 1
  44   25   51 1
  45   26   27 1
  46   26   29 1
  47   27   28 1
  48   27   52 1
  49   27   53 1
  50   28   54 1
  51   28   55 1
  52   29   31 1
  53   29   56 1
  54   29   57 1
  55   30   31 ar
  56   30   35 ar
  57   30   36 1
  58   31   32 ar
  59   32   33 ar
  60   32   58 1
  61   33   34 ar
  62   33   59 1
  63   34   35 ar
  64   34   60 1

#	End of record

