#	Name: ASD04170029
#	Creating user name:	WinNT
#	Creation time:	15. 06. 2019 20:48

#	Modifying user name:	WinNT
#	Modification time:	15. 06. 2019 20:48

#	Program:	/corina/corina34_cracker 3.40 0067  02.08.2006

@<TRIPOS>MOLECULE
ASD04170029
  37   39    0    0    0
SMALL
NO_CHARGES


@<TRIPOS>ATOM
   1 O1            -0.0005    -0.0022     0.0327 O.2     
   2 C2            -0.0151     1.2128     0.0324 C.2     
   3 N3             1.1435     1.9006     0.0013 N.am    
   4 C4             2.3640     1.2206     0.0917 C.ar    
   5 C5             2.4653     0.0733     0.8664 C.ar    
   6 C6             3.6710    -0.5957     0.9537 C.ar    
   7 C7             4.7766    -0.1236     0.2710 C.ar    
   8 C8             4.6799     1.0192    -0.5020 C.ar    
   9 C9             3.4754     1.6896    -0.5986 C.ar    
  10 Cl10           3.3544     3.1240    -1.5688 Cl      
  11 O11           -1.1890     1.8720     0.0575 O.3     
  12 C12           -2.3968     1.0666     0.0840 C.3     
  13 C13           -2.7922     0.7830     1.5349 C.3     
  14 N14           -4.1254     1.3256     1.8067 N.4     
  15 C15           -5.1262     0.6899     0.9464 C.3     
  16 C16           -4.8082     0.9712    -0.5238 C.3     
  17 C17           -3.5387     1.8297    -0.6001 C.3     
  18 C18           -3.7864     3.1292     0.1772 C.3     
  19 C19           -4.1374     2.7791     1.6250 C.3     
  20 H20            1.1318     2.8668    -0.0836 H       
  21 H21            1.6024    -0.2960     1.4007 H       
  22 H22            3.7500    -1.4884     1.5563 H       
  23 H23            5.7180    -0.6482     0.3417 H       
  24 H24            5.5454     1.3855    -1.0341 H       
  25 H25           -2.2200     0.1257    -0.4370 H       
  26 H26           -2.7986    -0.2938     1.7042 H       
  27 H27           -2.0689     1.2484     2.2045 H       
  28 H28           -4.3601     1.1294     2.7682 H       
  29 H29           -5.1195    -0.3865     1.1183 H       
  30 H30           -6.1129     1.0865     1.1853 H       
  31 H31           -4.6448     0.0300    -1.0488 H       
  32 H32           -5.6397     1.5073    -0.9813 H       
  33 H33           -3.2848     2.0369    -1.6397 H       
  34 H34           -2.8863     3.7436     0.1579 H       
  35 H35           -4.6133     3.6748    -0.2774 H       
  36 H36           -5.1294     3.1648     1.8601 H       
  37 H37           -3.4066     3.2332     2.2943 H       
@<TRIPOS>BOND
   1    1    2 2
   2    2    3 am
   3    2   11 1
   4    3    4 1
   5    3   20 1
   6    4    5 ar
   7    4    9 ar
   8    5    6 ar
   9    5   21 1
  10    6    7 ar
  11    6   22 1
  12    7    8 ar
  13    7   23 1
  14    8    9 ar
  15    8   24 1
  16    9   10 1
  17   11   12 1
  18   12   13 1
  19   12   17 1
  20   12   25 1
  21   13   14 1
  22   13   26 1
  23   13   27 1
  24   14   15 1
  25   14   19 1
  26   14   28 1
  27   15   16 1
  28   15   29 1
  29   15   30 1
  30   16   17 1
  31   16   31 1
  32   16   32 1
  33   17   18 1
  34   17   33 1
  35   18   19 1
  36   18   34 1
  37   18   35 1
  38   19   36 1
  39   19   37 1

#	End of record

