#	Name: ASD01720099
#	Creating user name:	WinNT
#	Creation time:	15. 06. 2019 19:23

#	Modifying user name:	WinNT
#	Modification time:	15. 06. 2019 19:23

#	Program:	/corina/corina34_cracker 3.40 0067  02.08.2006

@<TRIPOS>MOLECULE
ASD01720099
  58   61    0    0    0
SMALL
NO_CHARGES


@<TRIPOS>ATOM
   1 C1            -0.0526     1.3662    -0.0158 C.ar    
   2 C2            -0.0523    -0.0025    -0.0232 C.ar    
   3 C3             1.1418    -0.6905     0.1848 C.ar    
   4 N4             2.2786    -0.0399     0.3899 N.ar    
   5 C5             2.3268     1.2809     0.4056 C.ar    
   6 C6             1.1606     2.0358     0.2029 C.ar    
   7 N7             1.1408    -2.0749     0.1776 N.3     
   8 O8             3.5072     1.9094     0.6188 O.3     
   9 C9             4.6556     1.0826     0.8184 C.3     
  10 C10            5.8860     1.9640     1.0418 C.3     
  11 C11            7.1155     1.0788     1.2555 C.3     
  12 C12            7.4073     0.2935    -0.0248 C.3     
  13 C13            8.3208     1.9551     1.6021 C.3     
  14 C14            1.2101     3.5068     0.2197 C.2     
  15 O15            2.2672     4.0777     0.4102 O.2     
  16 C16            2.5060    -2.6096     0.4166 C.3     
  17 C17            2.4634    -4.0485    -0.1410 C.3     
  18 C18            1.3231    -4.0422    -1.1798 C.3     
  19 C19            0.7726    -2.6000    -1.1625 C.3     
  20 C20            2.7710    -4.2564    -1.6252 C.3     
  21 C21            3.1645    -5.6429    -2.0655 C.2     
  22 O22            3.2270    -6.5385    -1.2569 O.2     
  23 O23            3.4455    -5.8828    -3.3559 O.3     
  24 N24            0.0841     4.2212     0.0239 N.am    
  25 C25            0.1118     5.6168     0.1369 C.ar    
  26 C26            1.2565     7.7017    -0.1704 C.ar    
  27 C27            1.2301     6.3256    -0.2817 C.ar    
  28 C28           -0.9814     6.2931     0.6621 C.ar    
  29 C29           -0.9536     7.6692     0.7727 C.ar    
  30 C30            0.1661     8.3761     0.3593 C.ar    
  31 O31            0.1930     9.7312     0.4689 O.3     
  32 H32           -0.9660     1.9188    -0.1793 H       
  33 H33           -0.9711    -0.5455    -0.1887 H       
  34 H34            4.4995     0.4485     1.6911 H       
  35 H35            4.8109     0.4580    -0.0613 H       
  36 H36            6.0421     2.5981     0.1690 H       
  37 H37            5.7307     2.5886     1.9215 H       
  38 H38            6.9249     0.3833     2.0728 H       
  39 H39            8.2832    -0.3372     0.1275 H       
  40 H40            6.5485    -0.3308    -0.2717 H       
  41 H41            7.5979     0.9889    -0.8421 H       
  42 H42            8.1130     2.5146     2.5142 H       
  43 H43            9.1968     1.3245     1.7543 H       
  44 H44            8.5115     2.6506     0.7847 H       
  45 H45            3.2462    -2.0158    -0.1197 H       
  46 H46            2.7280    -2.6218     1.4837 H       
  47 H47            2.5915    -4.8682     0.5661 H       
  48 H48            0.6023    -4.8572    -1.2461 H       
  49 H49           -0.3105    -2.6050    -1.2844 H       
  50 H50            1.2415    -2.0047    -1.9460 H       
  51 H51            3.2593    -3.4392    -2.1563 H       
  52 H52            3.6930    -6.7877    -3.5904 H       
  53 H53           -0.7454     3.7687    -0.1952 H       
  54 H54            2.1264     8.2531    -0.4956 H       
  55 H55            2.0793     5.8006    -0.6937 H       
  56 H56           -1.8533     5.7429     0.9837 H       
  57 H57           -1.8039     8.1953     1.1809 H       
  58 H58           -0.1474    10.1955    -0.3081 H       
@<TRIPOS>BOND
   1    1    2 ar
   2    1    6 ar
   3    1   32 1
   4    2    3 ar
   5    2   33 1
   6    3    4 ar
   7    3    7 1
   8    4    5 ar
   9    5    6 ar
  10    5    8 1
  11    6   14 1
  12    7   16 1
  13    7   19 1
  14    8    9 1
  15    9   10 1
  16    9   34 1
  17    9   35 1
  18   10   11 1
  19   10   36 1
  20   10   37 1
  21   11   12 1
  22   11   13 1
  23   11   38 1
  24   12   39 1
  25   12   40 1
  26   12   41 1
  27   13   42 1
  28   13   43 1
  29   13   44 1
  30   14   15 2
  31   14   24 am
  32   16   17 1
  33   16   45 1
  34   16   46 1
  35   17   18 1
  36   17   20 1
  37   17   47 1
  38   18   19 1
  39   18   20 1
  40   18   48 1
  41   19   49 1
  42   19   50 1
  43   20   21 1
  44   20   51 1
  45   21   22 2
  46   21   23 1
  47   23   52 1
  48   24   25 1
  49   24   53 1
  50   25   28 ar
  51   25   27 ar
  52   26   27 ar
  53   26   30 ar
  54   26   54 1
  55   27   55 1
  56   28   29 ar
  57   28   56 1
  58   29   30 ar
  59   29   57 1
  60   30   31 1
  61   31   58 1

#	End of record

