#	Name: ASD01880630
#	Creating user name:	WinNT
#	Creation time:	15. 06. 2019 19:41

#	Modifying user name:	WinNT
#	Modification time:	15. 06. 2019 19:41

#	Program:	/corina/corina34_cracker 3.40 0067  02.08.2006

@<TRIPOS>MOLECULE
ASD01880630
  51   54    0    0    0
SMALL
NO_CHARGES


@<TRIPOS>ATOM
   1 N1            -0.0363     1.2572    -0.1567 N.ar    
   2 C2             0.0503    -0.0556    -0.2008 C.ar    
   3 N3             1.2006    -0.6830    -0.0542 N.ar    
   4 C4             2.3243    -0.0116     0.1449 C.ar    
   5 C5             2.2841     1.3704     0.1991 C.ar    
   6 C6             1.0489     2.0037     0.0399 C.ar    
   7 C7             3.5402     2.1720     0.4244 C.3     
   8 O8             4.2218     2.3489    -0.8190 O.3     
   9 C9             5.3808     3.0544    -0.7914 C.ar    
  10 C10            6.0952     3.2640    -1.9669 C.ar    
  11 C11            7.2672     3.9782    -1.9376 C.ar    
  12 C12            7.7494     4.4979    -0.7318 C.ar    
  13 C13            7.0278     4.2848     0.4460 C.ar    
  14 C14            5.8501     3.5718     0.4101 C.ar    
  15 C15            8.2601     4.3775    -3.0006 C.3     
  16 N16            9.3090     5.1413    -2.3154 N.am    
  17 C17            9.0103     5.2083    -1.0066 C.2     
  18 O18            9.6848     5.7751    -0.1687 O.2     
  19 C19            3.6310    -0.7437     0.3111 C.3     
  20 C20            0.9480     3.4825     0.0886 C.ar    
  21 C21            1.8730     4.2696    -0.5952 C.ar    
  22 C22            1.7742     5.6453    -0.5463 C.ar    
  23 C23            0.7601     6.2432     0.1800 C.ar    
  24 C24           -0.1604     5.4670     0.8610 C.ar    
  25 C25           -0.0754     4.0903     0.8137 C.ar    
  26 C26           11.3929     7.7756    -4.0712 C.3     
  27 C27           10.1617     7.1576    -3.4056 C.3     
  28 C28           10.4879     5.7330    -2.9527 C.3     
  29 H29           -0.8467    -0.6354    -0.3613 H       
  30 H30            3.2802     3.1463     0.8381 H       
  31 H31            4.1888     1.6424     1.1222 H       
  32 H32            5.7283     2.8650    -2.9011 H       
  33 H33            7.3915     4.6814     1.3824 H       
  34 H34            5.2927     3.4078     1.3205 H       
  35 H35            8.6872     3.4896    -3.4669 H       
  36 H36            7.7743     4.9994    -3.7525 H       
  37 H37            4.0997    -0.8763    -0.6640 H       
  38 H38            4.2921    -0.1652     0.9563 H       
  39 H39            3.4463    -1.7191     0.7611 H       
  40 H40            2.6656     3.8039    -1.1620 H       
  41 H41            2.4904     6.2562    -1.0758 H       
  42 H42            0.6868     7.3201     0.2158 H       
  43 H43           -0.9500     5.9392     1.4267 H       
  44 H44           -0.7948     3.4853     1.3455 H       
  45 H45           12.2172     7.8007    -3.3585 H       
  46 H46           11.6782     7.1759    -4.9356 H       
  47 H47           11.1606     8.7905    -4.3939 H       
  48 H48            9.8765     7.7573    -2.5412 H       
  49 H49            9.3375     7.1326    -4.1184 H       
  50 H50           11.3121     5.7581    -2.2400 H       
  51 H51           10.7731     5.1334    -3.8171 H       
@<TRIPOS>BOND
   1    1    2 ar
   2    1    6 ar
   3    2    3 ar
   4    2   29 1
   5    3    4 ar
   6    4    5 ar
   7    4   19 1
   8    5    6 ar
   9    5    7 1
  10    6   20 1
  11    7    8 1
  12    7   30 1
  13    7   31 1
  14    8    9 1
  15    9   10 ar
  16    9   14 ar
  17   10   11 ar
  18   10   32 1
  19   11   12 ar
  20   11   15 1
  21   12   13 ar
  22   12   17 1
  23   13   14 ar
  24   13   33 1
  25   14   34 1
  26   15   16 1
  27   15   35 1
  28   15   36 1
  29   16   17 am
  30   16   28 1
  31   17   18 2
  32   19   37 1
  33   19   38 1
  34   19   39 1
  35   20   21 ar
  36   20   25 ar
  37   21   22 ar
  38   21   40 1
  39   22   23 ar
  40   22   41 1
  41   23   24 ar
  42   23   42 1
  43   24   25 ar
  44   24   43 1
  45   25   44 1
  46   26   27 1
  47   26   45 1
  48   26   46 1
  49   26   47 1
  50   27   28 1
  51   27   48 1
  52   27   49 1
  53   28   50 1
  54   28   51 1

#	End of record

