#	Name: ASD02562054
#	Creating user name:	WinNT
#	Creation time:	15. 06. 2019 20:25

#	Modifying user name:	WinNT
#	Modification time:	15. 06. 2019 20:25

#	Program:	/corina/corina34_cracker 3.40 0067  02.08.2006

@<TRIPOS>MOLECULE
ASD02562054
  46   49    0    0    0
SMALL
NO_CHARGES


@<TRIPOS>ATOM
   1 C1             0.1361     1.3900     1.1055 C.2     
   2 C2             0.1575    -0.0164     1.0952 C.2     
   3 C3             1.2854    -0.6780     0.7691 C.2     
   4 N4             2.4260     0.0067     0.4433 N.pl3   
   5 C5             2.4354     1.3832     0.4443 C.2     
   6 C6             1.2587     2.0853     0.7845 C.2     
   7 C7             3.6766    -0.4105     0.0831 C.2     
   8 C8             4.4326     0.7341    -0.1310 C.2     
   9 N9             3.6418     1.8003     0.0989 N.2     
  10 N10            4.1068    -1.7216    -0.0432 N.3     
  11 C11            5.8478     0.7754    -0.5373 C.ar    
  12 C12            2.9827    -2.6589     0.0825 C.3     
  13 C13            3.3224    -3.9627    -0.6425 C.3     
  14 C14            2.1516    -4.9389    -0.5116 C.3     
  15 C15            1.8936    -5.2304     0.9680 C.3     
  16 C16            1.5539    -3.9266     1.6930 C.3     
  17 C17            2.7247    -2.9504     1.5621 C.3     
  18 C18            6.3010     1.7923    -1.3904 C.ar    
  19 C19            7.6068     1.8339    -1.7684 C.ar    
  20 C20            8.5059     0.8527    -1.3009 C.ar    
  21 C21            8.0459    -0.1680    -0.4427 C.ar    
  22 C22            6.7395    -0.1990    -0.0655 C.ar    
  23 N23            9.7905     0.8897    -1.6705 N.2     
  24 O24           10.6913    -0.0964    -1.1999 O.3     
  25 O25           10.1858     1.7715    -2.4118 O.2     
  26 H26           -0.7712     1.9159     1.3636 H       
  27 H27           -0.7347    -0.5690     1.3503 H       
  28 H28            1.2901    -1.7580     0.7649 H       
  29 H29            1.2510     3.1653     0.7900 H       
  30 H30            4.5966    -1.8591    -0.9146 H       
  31 H31            2.0905    -2.2178    -0.3619 H       
  32 H32            3.5062    -3.7551    -1.6966 H       
  33 H33            4.2146    -4.4037    -0.1981 H       
  34 H34            1.2594    -4.4979    -0.9560 H       
  35 H35            2.3936    -5.8678    -1.0281 H       
  36 H36            1.0595    -5.9259     1.0613 H       
  37 H37            2.7858    -5.6715     1.4124 H       
  38 H38            0.6617    -3.4856     1.2486 H       
  39 H39            1.3701    -4.1343     2.7471 H       
  40 H40            3.6170    -3.3914     2.0065 H       
  41 H41            2.4827    -2.0215     2.0786 H       
  42 H42            5.6119     2.5432    -1.7478 H       
  43 H43            7.9548     2.6169    -2.4258 H       
  44 H44            8.7309    -0.9212    -0.0825 H       
  45 H45            6.3864    -0.9801     0.5915 H       
  46 H46           11.5970     0.0131    -1.5206 H       
@<TRIPOS>BOND
   1    1    2 1
   2    1    6 2
   3    1   26 1
   4    2    3 2
   5    2   27 1
   6    3    4 1
   7    3   28 1
   8    4    5 1
   9    4    7 1
  10    5    6 1
  11    5    9 2
  12    6   29 1
  13    7    8 2
  14    7   10 1
  15    8    9 1
  16    8   11 1
  17   10   12 1
  18   10   30 1
  19   11   18 ar
  20   11   22 ar
  21   12   13 1
  22   12   17 1
  23   12   31 1
  24   13   14 1
  25   13   32 1
  26   13   33 1
  27   14   15 1
  28   14   34 1
  29   14   35 1
  30   15   16 1
  31   15   36 1
  32   15   37 1
  33   16   17 1
  34   16   38 1
  35   16   39 1
  36   17   40 1
  37   17   41 1
  38   18   19 ar
  39   18   42 1
  40   19   20 ar
  41   19   43 1
  42   20   21 ar
  43   20   23 1
  44   21   22 ar
  45   21   44 1
  46   22   45 1
  47   23   24 1
  48   23   25 2
  49   24   46 1

#	End of record

