#	Name: ASD01940069
#	Creating user name:	WinNT
#	Creation time:	15. 06. 2019 20:11

#	Modifying user name:	WinNT
#	Modification time:	15. 06. 2019 20:11

#	Program:	/corina/corina34_cracker 3.40 0067  02.08.2006

@<TRIPOS>MOLECULE
ASD01940069
  32   33    0    0    0
SMALL
NO_CHARGES


@<TRIPOS>ATOM
   1 C1            -0.1791     1.3721    -0.0507 C.3     
   2 S2             0.0458    -0.4279    -0.0595 S.o2    
   3 O3             0.9246    -0.8257     0.9839 O.2     
   4 O4            -1.1981    -1.0849    -0.2599 O.2     
   5 N5             0.8963    -0.7313    -1.4476 N.am    
   6 C6             2.1700    -0.1746    -1.6248 C.ar    
   7 C7             2.5823     0.2371    -2.8915 C.ar    
   8 C8             3.8450     0.7884    -3.0612 C.ar    
   9 C9             4.6911     0.9278    -1.9721 C.ar    
  10 C10            4.2796     0.5179    -0.7158 C.ar    
  11 C11            3.0204    -0.0268    -0.5398 C.ar    
  12 N12            1.7244     0.0943    -3.9907 N.pl3   
  13 C13            2.2397     0.1365    -5.2900 C.ar    
  14 C14            2.9728    -0.9377    -5.7848 C.ar    
  15 C15            3.4800    -0.8921    -7.0698 C.ar    
  16 C16            3.2594     0.2205    -7.8627 C.ar    
  17 C17            2.5315     1.2894    -7.3728 C.ar    
  18 C18            2.0162     1.2479    -6.0913 C.ar    
  19 I19            4.0305     0.2859    -9.8095 I       
  20 F20            3.1889    -2.0234    -5.0103 F       
  21 F21            5.9199     1.4643    -2.1373 F       
  22 F22            4.2490     1.1883    -4.2868 F       
  23 H23            0.7956     1.8600    -0.0456 H       
  24 H24           -0.7317     1.6735    -0.9405 H       
  25 H25           -0.7363     1.6643     0.8394 H       
  26 H26            0.5128    -1.2944    -2.1381 H       
  27 H27            4.9420     0.6275     0.1301 H       
  28 H28            2.7010    -0.3410     0.4428 H       
  29 H29            0.7732    -0.0339    -3.8502 H       
  30 H30            4.0492    -1.7251    -7.4552 H       
  31 H31            2.3619     2.1562    -7.9943 H       
  32 H32            1.4442     2.0816    -5.7117 H       
@<TRIPOS>BOND
   1    1    2 1
   2    1   23 1
   3    1   24 1
   4    1   25 1
   5    2    3 2
   6    2    4 2
   7    2    5 am
   8    5    6 1
   9    5   26 1
  10    6    7 ar
  11    6   11 ar
  12    7    8 ar
  13    7   12 1
  14    8    9 ar
  15    8   22 1
  16    9   10 ar
  17    9   21 1
  18   10   11 ar
  19   10   27 1
  20   11   28 1
  21   12   13 1
  22   12   29 1
  23   13   14 ar
  24   13   18 ar
  25   14   15 ar
  26   14   20 1
  27   15   16 ar
  28   15   30 1
  29   16   17 ar
  30   16   19 1
  31   17   18 ar
  32   17   31 1
  33   18   32 1

#	End of record

