#	Name: ASD01911732
#	Creating user name:	WinNT
#	Creation time:	15. 06. 2019 19:58

#	Modifying user name:	WinNT
#	Modification time:	15. 06. 2019 19:58

#	Program:	/corina/corina34_cracker 3.40 0067  02.08.2006

@<TRIPOS>MOLECULE
ASD01911732
  41   43    0    0    0
SMALL
NO_CHARGES


@<TRIPOS>ATOM
   1 N1             0.0318     1.1533    -0.6880 N.am    
   2 C2             0.0021    -0.0041     0.0020 C.2     
   3 C3            -1.2503    -0.7541     0.1205 C.2     
   4 C4            -1.3857    -2.1132     0.0310 C.2     
   5 S5            -2.8466    -0.0656     0.4110 S.3     
   6 C6            -3.5478    -1.6809     0.3771 C.2     
   7 N7            -2.6009    -2.5624     0.1690 N.2     
   8 C8            -4.9361    -1.9841     0.5538 C.1     
   9 C9            -6.0743    -2.2326     0.6986 C.1     
  10 C10           -7.4626    -2.5358     0.8753 C.ar    
  11 C11           -7.9029    -3.8629     0.8277 C.ar    
  12 O12            1.0161    -0.4260     0.5267 O.2     
  13 C13           -1.1494     1.6119    -1.4318 C.3     
  14 C14           -1.4875     3.0389    -0.9891 C.3     
  15 C15           -0.2533     3.9276    -1.1595 C.3     
  16 C16            0.8807     3.4035    -0.2756 C.3     
  17 C17            1.2439     1.9834    -0.7057 C.3     
  18 C18           -9.2392    -4.1492     0.9987 C.ar    
  19 C19          -10.1496    -3.1226     1.2183 C.ar    
  20 C20           -9.7175    -1.8027     1.2660 C.ar    
  21 C21           -8.3826    -1.5063     1.1020 C.ar    
  22 O22          -11.4662    -3.4102     1.3863 O.3     
  23 C23          -12.3479    -2.3077     1.6081 C.3     
  24 H24           -0.5441    -2.7675    -0.1423 H       
  25 H25           -7.1961    -4.6614     0.6567 H       
  26 H26           -0.9348     1.6020    -2.5005 H       
  27 H27           -1.9925     0.9542    -1.2203 H       
  28 H28           -2.3021     3.4263    -1.6010 H       
  29 H29           -1.7897     3.0329     0.0582 H       
  30 H30            0.0631     3.9135    -2.2025 H       
  31 H31           -0.4983     4.9490    -0.8684 H       
  32 H32            1.7518     4.0504    -0.3797 H       
  33 H33            0.5563     3.3941     0.7650 H       
  34 H34            1.9812     1.5704    -0.0172 H       
  35 H35            1.6536     2.0010    -1.7156 H       
  36 H36           -9.5801    -5.1733     0.9617 H       
  37 H37          -10.4291    -1.0084     1.4366 H       
  38 H38           -8.0477    -0.4802     1.1392 H       
  39 H39          -13.3671    -2.6755     1.7259 H       
  40 H40          -12.0463    -1.7773     2.5113 H       
  41 H41          -12.3027    -1.6292     0.7562 H       
@<TRIPOS>BOND
   1    1    2 am
   2    1   13 1
   3    1   17 1
   4    2    3 1
   5    2   12 2
   6    3    4 2
   7    3    5 1
   8    4    7 1
   9    4   24 1
  10    5    6 1
  11    6    7 2
  12    6    8 1
  13    8    9 3
  14    9   10 1
  15   10   11 ar
  16   10   21 ar
  17   11   18 ar
  18   11   25 1
  19   13   14 1
  20   13   26 1
  21   13   27 1
  22   14   15 1
  23   14   28 1
  24   14   29 1
  25   15   16 1
  26   15   30 1
  27   15   31 1
  28   16   17 1
  29   16   32 1
  30   16   33 1
  31   17   34 1
  32   17   35 1
  33   18   19 ar
  34   18   36 1
  35   19   20 ar
  36   19   22 1
  37   20   21 ar
  38   20   37 1
  39   21   38 1
  40   22   23 1
  41   23   39 1
  42   23   40 1
  43   23   41 1

#	End of record

