#	Name: ASD04880216
#	Creating user name:	WinNT
#	Creation time:	15. 06. 2019 20:53

#	Modifying user name:	WinNT
#	Modification time:	15. 06. 2019 20:53

#	Program:	/corina/corina34_cracker 3.40 0067  02.08.2006

@<TRIPOS>MOLECULE
ASD04880216
  51   54    0    0    0
SMALL
NO_CHARGES


@<TRIPOS>ATOM
   1 C1            -0.0967     1.5400    -0.0224 C.3     
   2 C2            -0.0245     0.0002    -0.0076 C.3     
   3 N3            -0.7009    -0.3651     1.2472 N.am    
   4 N4            -1.1177     0.7988     1.8898 N.2     
   5 C5            -0.8241     1.8829     1.2579 C.2     
   6 C6            -1.1473     3.2471     1.7135 C.ar    
   7 C7            -0.8871    -1.6206     1.7006 C.2     
   8 O8            -0.5737    -2.5698     1.0083 O.2     
   9 C9            -1.4723    -1.8436     3.0394 C.ar    
  10 C10           -1.7005    -0.7629     3.8934 C.ar    
  11 C11           -2.2473    -0.9764     5.1417 C.ar    
  12 C12           -2.5700    -2.2584     5.5495 C.ar    
  13 C13           -2.3462    -3.3362     4.7080 C.ar    
  14 C14           -1.8042    -3.1345     3.4527 C.ar    
  15 F15           -2.6630    -4.5855     5.1132 F       
  16 C16           -0.7759     4.3498     0.9405 C.ar    
  17 C17            1.2883     2.1341    -0.0189 C.ar    
  18 C18            1.6941     2.9470    -1.0608 C.ar    
  19 C19            2.9641     3.4925    -1.0578 C.ar    
  20 C20            3.8290     3.2249    -0.0120 C.ar    
  21 C21            3.4225     2.4114     1.0303 C.ar    
  22 C22            2.1505     1.8706     1.0290 C.ar    
  23 Br23           5.5668     3.9704    -0.0076 Br      
  24 C24           -1.0797     5.6254     1.3684 C.ar    
  25 C25           -1.7536     5.8169     2.5654 C.ar    
  26 C26           -2.1268     4.7215     3.3419 C.ar    
  27 C27           -1.8311     3.4402     2.9171 C.ar    
  28 O28           -2.7872     4.9133     4.5153 O.3     
  29 C29           -3.1390     3.7456     5.2601 C.3     
  30 O30           -2.0505     7.0762     2.9824 O.3     
  31 C31           -1.6383     8.1531     2.1383 C.3     
  32 H32           -0.6587     1.8881    -0.8890 H       
  33 H33           -0.5540    -0.4169    -0.8643 H       
  34 H34            1.0126    -0.3351     0.0039 H       
  35 H35           -1.4490     0.2388     3.5774 H       
  36 H36           -2.4236    -0.1406     5.8026 H       
  37 H37           -2.9979    -2.4198     6.5279 H       
  38 H38           -1.6298    -3.9747     2.7969 H       
  39 H39           -0.2507     4.2036     0.0082 H       
  40 H40            1.0188     3.1556    -1.8775 H       
  41 H41            3.2811     4.1273    -1.8720 H       
  42 H42            4.0976     2.2020     1.8469 H       
  43 H43            1.8330     1.2355     1.8428 H       
  44 H44           -0.7917     6.4772     0.7701 H       
  45 H45           -2.1201     2.5905     3.5178 H       
  46 H46           -3.6596     4.0393     6.1716 H       
  47 H47           -3.7905     3.1129     4.6574 H       
  48 H48           -2.2353     3.1941     5.5194 H       
  49 H49           -0.5546     8.1304     2.0235 H       
  50 H50           -2.1095     8.0495     1.1609 H       
  51 H51           -1.9364     9.1008     2.5868 H       
@<TRIPOS>BOND
   1    1    2 1
   2    1   17 1
   3    1    5 1
   4    1   32 1
   5    2    3 1
   6    2   33 1
   7    2   34 1
   8    3    4 1
   9    3    7 am
  10    4    5 2
  11    5    6 1
  12    6   16 ar
  13    6   27 ar
  14    7    8 2
  15    7    9 1
  16    9   10 ar
  17    9   14 ar
  18   10   11 ar
  19   10   35 1
  20   11   12 ar
  21   11   36 1
  22   12   13 ar
  23   12   37 1
  24   13   14 ar
  25   13   15 1
  26   14   38 1
  27   16   24 ar
  28   16   39 1
  29   17   18 ar
  30   17   22 ar
  31   18   19 ar
  32   18   40 1
  33   19   20 ar
  34   19   41 1
  35   20   21 ar
  36   20   23 1
  37   21   22 ar
  38   21   42 1
  39   22   43 1
  40   24   25 ar
  41   24   44 1
  42   25   26 ar
  43   25   30 1
  44   26   27 ar
  45   26   28 1
  46   27   45 1
  47   28   29 1
  48   29   46 1
  49   29   47 1
  50   29   48 1
  51   30   31 1
  52   31   49 1
  53   31   50 1
  54   31   51 1

#	End of record

