#	Name: ASD03331366
#	Creating user name:	WinNT
#	Creation time:	15. 06. 2019 20:39

#	Modifying user name:	WinNT
#	Modification time:	15. 06. 2019 20:39

#	Program:	/corina/corina34_cracker 3.40 0067  02.08.2006

@<TRIPOS>MOLECULE
ASD03331366
  61   63    0    0    0
SMALL
NO_CHARGES


@<TRIPOS>ATOM
   1 C1            -0.3387     2.2158     0.2613 C.3     
   2 C2            -0.1046     0.7264     0.2932 C.2     
   3 C3             1.0978     0.1541     0.0440 C.2     
   4 C4             2.3357     0.9461    -0.2977 C.3     
   5 C5             1.8939     2.3628    -0.6908 C.3     
   6 N6             0.9692     2.8904     0.3214 N.3     
   7 N7            -0.3051    -1.4872     0.4729 N.2     
   8 N8            -0.9894    -0.2648     0.5591 N.am    
   9 C9             0.9510    -1.2362     0.1634 C.2     
  10 C10           -2.2948    -0.1052     0.8539 C.2     
  11 O11           -2.7756     1.0097     0.8991 O.2     
  12 N12           -3.0669    -1.1824     1.0987 N.am    
  13 C13            0.8176     4.3455     0.1885 C.3     
  14 C14           -4.9681    -2.1909     2.2202 C.2     
  15 C15           -4.4859    -1.0090     1.4192 C.3     
  16 C16           -5.2928    -0.9079     0.1232 C.3     
  17 C17           -5.1077    -2.1881    -0.6940 C.3     
  18 O18           -4.3430    -3.2301     2.2040 O.2     
  19 C19           -6.7747    -0.7264     0.4579 C.3     
  20 C20           -4.8030     0.2917    -0.6903 C.3     
  21 N21           -6.0939    -2.0931     2.9547 N.am    
  22 C22           -6.6104    -3.2666     3.6634 C.3     
  23 C23           -7.8880    -2.8871     4.4149 C.3     
  24 O24           -8.9058    -2.5342     3.4761 O.3     
  25 C25            2.0215    -2.2460    -0.0260 C.ar    
  26 C26            2.0374    -3.4018     0.7526 C.ar    
  27 C27            3.0358    -4.3394     0.5723 C.ar    
  28 C28            4.0214    -4.1303    -0.3822 C.ar    
  29 C29            4.0077    -2.9828    -1.1569 C.ar    
  30 C30            3.0102    -2.0440    -0.9867 C.ar    
  31 F31            4.9970    -5.0486    -0.5556 F       
  32 F32            3.0531    -5.4605     1.3260 F       
  33 H33           -0.8503     2.4876    -0.6620 H       
  34 H34           -0.9442     2.5111     1.1182 H       
  35 H35            2.9951     0.9923     0.5690 H       
  36 H36            2.8553     0.4765    -1.1330 H       
  37 H37            2.7682     3.0104    -0.7564 H       
  38 H38            1.3927     2.3313    -1.6582 H       
  39 H39           -2.6831    -2.0726     1.0626 H       
  40 H40            0.1930     4.7213     0.9989 H       
  41 H41            1.7983     4.8189     0.2363 H       
  42 H42            0.3490     4.5762    -0.7682 H       
  43 H43           -4.6180    -0.0971     2.0015 H       
  44 H44           -5.4566    -3.0428    -0.1145 H       
  45 H45           -5.6825    -2.1161    -1.6173 H       
  46 H46           -4.0519    -2.3174    -0.9325 H       
  47 H47           -6.9086     0.1936     1.0269 H       
  48 H48           -7.3514    -0.6698    -0.4653 H       
  49 H49           -7.1198    -1.5736     1.0505 H       
  50 H50           -3.7473     0.1624    -0.9288 H       
  51 H51           -5.3778     0.3638    -1.6136 H       
  52 H52           -4.9349     1.2037    -0.1081 H       
  53 H53           -6.5622    -1.2457     3.0140 H       
  54 H54           -6.8322    -4.0562     2.9454 H       
  55 H55           -5.8628    -3.6205     4.3733 H       
  56 H56           -8.2232    -3.7346     5.0128 H       
  57 H57           -7.6865    -2.0384     5.0686 H       
  58 H58           -9.7459    -2.2817     3.8831 H       
  59 H59            1.2708    -3.5640     1.4958 H       
  60 H60            4.7767    -2.8238    -1.8983 H       
  61 H61            2.9986    -1.1515    -1.5946 H       
@<TRIPOS>BOND
   1    1    2 1
   2    1    6 1
   3    1   33 1
   4    1   34 1
   5    2    3 2
   6    2    8 1
   7    3    4 1
   8    3    9 1
   9    4    5 1
  10    4   35 1
  11    4   36 1
  12    5    6 1
  13    5   37 1
  14    5   38 1
  15    6   13 1
  16    7    8 1
  17    7    9 2
  18    8   10 am
  19    9   25 1
  20   10   11 2
  21   10   12 am
  22   12   15 1
  23   12   39 1
  24   13   40 1
  25   13   41 1
  26   13   42 1
  27   14   18 2
  28   14   21 am
  29   14   15 1
  30   15   16 1
  31   15   43 1
  32   16   17 1
  33   16   19 1
  34   16   20 1
  35   17   44 1
  36   17   45 1
  37   17   46 1
  38   19   47 1
  39   19   48 1
  40   19   49 1
  41   20   50 1
  42   20   51 1
  43   20   52 1
  44   21   22 1
  45   21   53 1
  46   22   23 1
  47   22   54 1
  48   22   55 1
  49   23   24 1
  50   23   56 1
  51   23   57 1
  52   24   58 1
  53   25   26 ar
  54   25   30 ar
  55   26   27 ar
  56   26   59 1
  57   27   28 ar
  58   27   32 1
  59   28   29 ar
  60   28   31 1
  61   29   30 ar
  62   29   60 1
  63   30   61 1

#	End of record

