#	Name: ASD01510097
#	Creating user name:	WinNT
#	Creation time:	15. 06. 2019 19:21

#	Modifying user name:	WinNT
#	Modification time:	15. 06. 2019 19:21

#	Program:	/corina/corina34_cracker 3.40 0067  02.08.2006

@<TRIPOS>MOLECULE
ASD01510097
  64   66    0    0    0
SMALL
NO_CHARGES


@<TRIPOS>ATOM
   1 C1            -0.0246     1.4070    -0.0120 C.3     
   2 O2            -0.0012    -0.0218    -0.0160 O.3     
   3 C3             0.6056    -0.6247    -1.0685 C.ar    
   4 N4             1.1470     0.1016    -2.0406 N.ar    
   5 C5             1.7416    -0.4791    -3.0715 C.ar    
   6 N6             1.8225    -1.7965    -3.1794 N.ar    
   7 C7             1.3049    -2.5895    -2.2472 C.ar    
   8 C8             0.6752    -2.0158    -1.1427 C.ar    
   9 S9            -0.0270    -3.0236     0.1206 S.3     
  10 C10            1.3620    -3.1822     1.1929 C.ar    
  11 N11            2.5002    -2.5865     0.8673 N.ar    
  12 C12            3.5691    -2.6845     1.6534 C.ar    
  13 N13            4.7559    -2.0582     1.3063 N.pl3   
  14 C14            3.4795    -3.4244     2.8300 C.ar    
  15 C15            2.2684    -4.0350     3.1379 C.ar    
  16 N16            1.2400    -3.8897     2.3070 N.ar    
  17 N17            2.1329    -4.7838     4.3024 N.am    
  18 C18            0.9297    -5.2851     4.6451 C.2     
  19 O19           -0.0521    -5.0063     3.9902 O.2     
  20 C20            0.8044    -6.1920     5.8421 C.3     
  21 C21           -0.6558    -6.6171     6.0092 C.3     
  22 N22           -0.7780    -7.5011     7.1761 N.3     
  23 C23           -2.1884    -7.7395     7.5106 C.3     
  24 C24           -0.0685    -8.7680     6.9533 C.3     
  25 O25            1.3918    -3.9378    -2.3657 O.3     
  26 C26            2.0568    -4.4457    -3.5241 C.3     
  27 N27            2.2943     0.3138    -4.0653 N.3     
  28 C28            2.9049    -0.5102    -5.1178 C.3     
  29 C29            3.4317     0.3977    -6.2316 C.3     
  30 N30            4.4098     1.3400    -5.6705 N.3     
  31 C31            3.7992     2.1640    -4.6180 C.3     
  32 C32            3.2725     1.2561    -3.5042 C.3     
  33 C33            4.9955     2.1802    -6.7236 C.3     
  34 H34            0.9969     1.7872    -0.0183 H       
  35 H35           -0.5507     1.7642    -0.8973 H       
  36 H36           -0.5380     1.7595     0.8826 H       
  37 H37            4.8111    -1.5442     0.4856 H       
  38 H38            5.5313    -2.1338     1.8842 H       
  39 H39            4.3306    -3.5220     3.4877 H       
  40 H40            2.9044    -4.9452     4.8678 H       
  41 H41            1.4255    -7.0755     5.6952 H       
  42 H42            1.1329    -5.6615     6.7359 H       
  43 H43           -1.2770    -5.7335     6.1562 H       
  44 H44           -0.9844    -7.1476     5.1155 H       
  45 H45           -2.6887    -8.2082     6.6632 H       
  46 H46           -2.2500    -8.3969     8.3779 H       
  47 H47           -2.6730    -6.7902     7.7391 H       
  48 H48            0.9881    -8.5665     6.7766 H       
  49 H49           -0.1750    -9.4036     7.8324 H       
  50 H50           -0.4919    -9.2739     6.0857 H       
  51 H51            1.5369    -4.1059    -4.4198 H       
  52 H52            3.0847    -4.0833    -3.5411 H       
  53 H53            2.0561    -5.5353    -3.4949 H       
  54 H54            3.7297    -1.0853    -4.6968 H       
  55 H55            2.1578    -1.1908    -5.5262 H       
  56 H56            3.9108    -0.2095    -6.9997 H       
  57 H57            2.6027     0.9527    -6.6709 H       
  58 H58            4.5463     2.8446    -4.2096 H       
  59 H59            2.9744     2.7390    -5.0390 H       
  60 H60            2.7933     1.8632    -2.7361 H       
  61 H61            4.1014     0.7011    -3.0649 H       
  62 H62            4.2062     2.7479    -7.2164 H       
  63 H63            5.7158     2.8682    -6.2809 H       
  64 H64            5.4990     1.5479    -7.4549 H       
@<TRIPOS>BOND
   1    1    2 1
   2    1   34 1
   3    1   35 1
   4    1   36 1
   5    2    3 1
   6    3    4 ar
   7    3    8 ar
   8    4    5 ar
   9    5    6 ar
  10    5   27 1
  11    6    7 ar
  12    7    8 ar
  13    7   25 1
  14    8    9 1
  15    9   10 1
  16   10   11 ar
  17   10   16 ar
  18   11   12 ar
  19   12   13 1
  20   12   14 ar
  21   13   37 1
  22   13   38 1
  23   14   15 ar
  24   14   39 1
  25   15   16 ar
  26   15   17 1
  27   17   18 am
  28   17   40 1
  29   18   19 2
  30   18   20 1
  31   20   21 1
  32   20   41 1
  33   20   42 1
  34   21   22 1
  35   21   43 1
  36   21   44 1
  37   22   23 1
  38   22   24 1
  39   23   45 1
  40   23   46 1
  41   23   47 1
  42   24   48 1
  43   24   49 1
  44   24   50 1
  45   25   26 1
  46   26   51 1
  47   26   52 1
  48   26   53 1
  49   27   28 1
  50   27   32 1
  51   28   29 1
  52   28   54 1
  53   28   55 1
  54   29   30 1
  55   29   56 1
  56   29   57 1
  57   30   31 1
  58   30   33 1
  59   31   32 1
  60   31   58 1
  61   31   59 1
  62   32   60 1
  63   32   61 1
  64   33   62 1
  65   33   63 1
  66   33   64 1

#	End of record

