#	Name: ASD06170152
#	Creating user name:	WinNT
#	Creation time:	15. 06. 2019 21:05

#	Modifying user name:	WinNT
#	Modification time:	15. 06. 2019 21:05

#	Program:	/corina/corina34_cracker 3.40 0067  02.08.2006

@<TRIPOS>MOLECULE
ASD06170152
  75   79    0    0    0
SMALL
NO_CHARGES


@<TRIPOS>ATOM
   1 N1             0.0863     2.0463     0.6093 N.pl3   
   2 N2             0.1744     0.6543     0.5144 N.am    
   3 C3             1.4778     0.3056     0.5105 C.2     
   4 C4             2.2457     1.5570     0.6090 C.2     
   5 C5             1.3209     2.5813     0.6655 C.2     
   6 C6             3.7071     1.6904     0.6413 C.2     
   7 O7             4.2157     2.7927     0.7258 O.2     
   8 N8             4.4856     0.5921     0.5774 N.am    
   9 C9            -0.9073    -0.2289     0.4366 C.ar    
  10 C10           -1.9136    -0.0163    -0.4968 C.ar    
  11 C11           -2.9802    -0.8905    -0.5714 C.ar    
  12 C12           -3.0468    -1.9767     0.2819 C.ar    
  13 C13           -2.0468    -2.1910     1.2126 C.ar    
  14 C14           -0.9746    -1.3237     1.2885 C.ar    
  15 O15            1.9296    -0.8221     0.4401 O.2     
  16 C16            1.6397     4.0504     0.7720 C.3     
  17 C17           -1.1635     2.8101     0.6372 C.3     
  18 C18           -1.5772     3.0584     2.0891 C.3     
  19 C19           -2.9436     3.7460     2.1196 C.3     
  20 C20           -1.6618     1.7228     2.8308 C.3     
  21 O21           -0.6085     3.8953     2.7240 O.3     
  22 C22            5.8780     0.7239     0.5081 C.ar    
  23 C23            6.5137     1.7492     1.1964 C.ar    
  24 C24            7.8882     1.8781     1.1278 C.ar    
  25 C25            8.6327     0.9820     0.3703 C.ar    
  26 C26            7.9971    -0.0410    -0.3163 C.ar    
  27 C27            6.6239    -0.1736    -0.2439 C.ar    
  28 O28            9.9852     1.1088     0.3022 O.3     
  29 C29           10.8511    -0.5618     3.3022 C.ar    
  30 N30           10.1377    -0.0148     2.3388 N.ar    
  31 C31           10.7273     0.5490     1.2885 C.ar    
  32 C32           12.1157     0.5556     1.2166 C.ar    
  33 C33           12.8324    -0.0321     2.2540 C.ar    
  34 N34           12.1680    -0.5758     3.2709 N.ar    
  35 C35           14.9048    -0.7195     3.1800 C.2     
  36 O36           14.3059    -1.3767     4.0091 O.2     
  37 N37           14.2227    -0.0517     2.2285 N.am    
  38 N38           16.2508    -0.6588     3.2123 N.am    
  39 C39           17.1158    -1.3348     4.1901 C.3     
  40 C40           18.5732    -0.9568     3.8512 C.3     
  41 C41           18.4127     0.3621     3.0499 C.3     
  42 C42           17.0999     0.0914     2.2690 C.3     
  43 F43            8.5076     2.8753     1.7965 F       
  44 H44            4.0814    -0.2897     0.5793 H       
  45 H45           -1.8623     0.8320    -1.1632 H       
  46 H46           -3.7632    -0.7255    -1.2967 H       
  47 H47           -3.8819    -2.6589     0.2215 H       
  48 H48           -2.1021    -3.0399     1.8780 H       
  49 H49           -0.1915    -1.4944     2.0124 H       
  50 H50            1.7007     4.3336     1.8228 H       
  51 H51            2.5942     4.2512     0.2856 H       
  52 H52            0.8548     4.6288     0.2848 H       
  53 H53           -1.0170     3.7652     0.1327 H       
  54 H54           -1.9452     2.2464     0.1280 H       
  55 H55           -3.6826     3.1076     1.6353 H       
  56 H56           -3.2384     3.9229     3.1540 H       
  57 H57           -2.8834     4.6975     1.5912 H       
  58 H58           -0.6883     1.2329     2.8091 H       
  59 H59           -1.9565     1.8997     3.8652 H       
  60 H60           -2.4007     1.0844     2.3466 H       
  61 H61           -0.8069     4.0948     3.6491 H       
  62 H62            5.9344     2.4455     1.7846 H       
  63 H63            8.5763    -0.7372    -0.9048 H       
  64 H64            6.1300    -0.9733    -0.7758 H       
  65 H65           10.3417    -1.0074     4.1438 H       
  66 H66           12.6247     1.0052     0.3768 H       
  67 H67           14.7016     0.4153     1.5260 H       
  68 H68           16.8703    -0.9983     5.1974 H       
  69 H69           16.9861    -2.4145     4.1159 H       
  70 H70           19.1493    -0.7877     4.7609 H       
  71 H71           19.0384    -1.7274     3.2364 H       
  72 H72           18.3041     1.2153     3.7195 H       
  73 H73           19.2489     0.5081     2.3662 H       
  74 H74           17.3008    -0.5075     1.3807 H       
  75 H75           16.6220     1.0316     1.9937 H       
@<TRIPOS>BOND
   1    1    2 1
   2    1    5 1
   3    1   17 1
   4    2    3 am
   5    2    9 1
   6    3    4 1
   7    3   15 2
   8    4    5 2
   9    4    6 1
  10    5   16 1
  11    6    7 2
  12    6    8 am
  13    8   22 1
  14    8   44 1
  15    9   10 ar
  16    9   14 ar
  17   10   11 ar
  18   10   45 1
  19   11   12 ar
  20   11   46 1
  21   12   13 ar
  22   12   47 1
  23   13   14 ar
  24   13   48 1
  25   14   49 1
  26   16   50 1
  27   16   51 1
  28   16   52 1
  29   17   18 1
  30   17   53 1
  31   17   54 1
  32   18   19 1
  33   18   20 1
  34   18   21 1
  35   19   55 1
  36   19   56 1
  37   19   57 1
  38   20   58 1
  39   20   59 1
  40   20   60 1
  41   21   61 1
  42   22   23 ar
  43   22   27 ar
  44   23   24 ar
  45   23   62 1
  46   24   25 ar
  47   24   43 1
  48   25   26 ar
  49   25   28 1
  50   26   27 ar
  51   26   63 1
  52   27   64 1
  53   28   31 1
  54   29   30 ar
  55   29   34 ar
  56   29   65 1
  57   30   31 ar
  58   31   32 ar
  59   32   33 ar
  60   32   66 1
  61   33   34 ar
  62   33   37 1
  63   35   36 2
  64   35   37 am
  65   35   38 am
  66   37   67 1
  67   38   39 1
  68   38   42 1
  69   39   40 1
  70   39   68 1
  71   39   69 1
  72   40   41 1
  73   40   70 1
  74   40   71 1
  75   41   42 1
  76   41   72 1
  77   41   73 1
  78   42   74 1
  79   42   75 1

#	End of record

