#	Name: ASD01917357
#	Creating user name:	WinNT
#	Creation time:	15. 06. 2019 20:09

#	Modifying user name:	WinNT
#	Modification time:	15. 06. 2019 20:09

#	Program:	/corina/corina34_cracker 3.40 0067  02.08.2006

@<TRIPOS>MOLECULE
ASD01917357
  53   56    0    0    0
SMALL
NO_CHARGES


@<TRIPOS>ATOM
   1 C1            -0.0083     1.3958     0.0068 C.ar    
   2 C2             0.0134     0.0029     0.0026 C.ar    
   3 C3             1.2351    -0.6512    -0.0158 C.ar    
   4 C4             2.3930     0.1108    -0.0293 C.ar    
   5 C5             2.2965     1.4931    -0.0242 C.ar    
   6 N6             1.1238     2.0882    -0.0065 N.ar    
   7 C7            -1.3063     2.1102     0.0202 C.2     
   8 O8            -2.3460     1.4813     0.0274 O.2     
   9 N9            -1.3339     3.4577     0.0243 N.am    
  10 C10           -2.6173     4.1641     0.0375 C.3     
  11 C11           -3.4945     3.8164    -1.1779 C.3     
  12 C12           -4.8908     4.4062    -0.9701 C.3     
  13 C13           -4.8004     5.9134    -0.7237 C.3     
  14 C14           -3.8670     6.1709     0.4722 C.3     
  15 C15           -4.2546     5.1706     1.5857 C.3     
  16 C16           -3.4473     3.8670     1.3076 C.3     
  17 C17           -2.4510     5.7067     0.0400 C.3     
  18 C18           -3.9078     7.6032     0.9389 C.2     
  19 N19           -5.0704     8.1438     1.3542 N.am    
  20 O20           -2.8944     8.2694     0.9409 O.2     
  21 C21           -5.0892     9.4320     1.8866 C.ar    
  22 C22           -6.3009    10.0333     2.2162 C.ar    
  23 N23           -3.9528    10.0857     2.0856 N.ar    
  24 N24           -6.3145    11.2527     2.7204 N.ar    
  25 C25           -5.1792    11.9031     2.9126 C.ar    
  26 C26           -3.9743    11.3071     2.5912 C.ar    
  27 C27           -2.6831    12.0505     2.8176 C.3     
  28 C28            3.5524     2.3258    -0.0389 C.3     
  29 H29           -0.9087    -0.5593     0.0139 H       
  30 H30            1.2839    -1.7301    -0.0191 H       
  31 H31            3.3609    -0.3681    -0.0434 H       
  32 H32           -0.5039     3.9598     0.0185 H       
  33 H33           -3.0512     4.2377    -2.0801 H       
  34 H34           -3.5672     2.7333    -1.2773 H       
  35 H35           -5.4961     4.2214    -1.8576 H       
  36 H36           -5.3602     3.9277    -0.1106 H       
  37 H37           -4.4006     6.4046    -1.6108 H       
  38 H38           -5.7927     6.3070    -0.5032 H       
  39 H39           -3.9869     5.5746     2.5620 H       
  40 H40           -5.3237     4.9620     1.5463 H       
  41 H41           -4.1279     3.0355     1.1244 H       
  42 H42           -2.7855     3.6333     2.1416 H       
  43 H43           -1.6902     6.0167     0.7565 H       
  44 H44           -2.2187     6.0764    -0.9587 H       
  45 H45           -5.8941     7.6365     1.2826 H       
  46 H46           -7.2284     9.5027     2.0590 H       
  47 H47           -5.1933    12.9010     3.3254 H       
  48 H48           -2.4309    12.6212     1.9239 H       
  49 H49           -2.7983    12.7300     3.6621 H       
  50 H50           -1.8862    11.3381     3.0307 H       
  51 H51            3.8413     2.5294    -1.0700 H       
  52 H52            3.3705     3.2669     0.4801 H       
  53 H53            4.3539     1.7834     0.4626 H       
@<TRIPOS>BOND
   1    1    2 ar
   2    1    6 ar
   3    1    7 1
   4    2    3 ar
   5    2   29 1
   6    3    4 ar
   7    3   30 1
   8    4    5 ar
   9    4   31 1
  10    5    6 ar
  11    5   28 1
  12    7    8 2
  13    7    9 am
  14    9   10 1
  15    9   32 1
  16   10   11 1
  17   10   16 1
  18   10   17 1
  19   11   12 1
  20   11   33 1
  21   11   34 1
  22   12   13 1
  23   12   35 1
  24   12   36 1
  25   13   14 1
  26   13   37 1
  27   13   38 1
  28   14   15 1
  29   14   17 1
  30   14   18 1
  31   15   16 1
  32   15   39 1
  33   15   40 1
  34   16   41 1
  35   16   42 1
  36   17   43 1
  37   17   44 1
  38   18   19 am
  39   18   20 2
  40   19   21 1
  41   19   45 1
  42   21   22 ar
  43   21   23 ar
  44   22   24 ar
  45   22   46 1
  46   23   26 ar
  47   24   25 ar
  48   25   26 ar
  49   25   47 1
  50   26   27 1
  51   27   48 1
  52   27   49 1
  53   27   50 1
  54   28   51 1
  55   28   52 1
  56   28   53 1

#	End of record

