#	Name: ASD00192124
#	Creating user name:	WinNT
#	Creation time:	15. 06. 2019 18:33

#	Modifying user name:	WinNT
#	Modification time:	15. 06. 2019 18:33

#	Program:	/corina/corina34_cracker 3.40 0067  02.08.2006

@<TRIPOS>MOLECULE
ASD00192124
  47   51    0    0    0
SMALL
NO_CHARGES


@<TRIPOS>ATOM
   1 C1            -0.0168     1.3868    -0.0322 C.ar    
   2 C2             0.0020    -0.0027    -0.0748 C.ar    
   3 C3             1.1799    -0.6888    -0.0879 C.ar    
   4 C4             2.3959     0.0112    -0.0581 C.ar    
   5 C5             2.3705     1.4254    -0.0148 C.ar    
   6 C6             1.1478     2.0990    -0.0023 C.ar    
   7 N7             3.5672    -0.6420    -0.0698 N.ar    
   8 C8             4.7268    -0.0218    -0.0424 C.ar    
   9 C9             4.8177     1.3786     0.0017 C.ar    
  10 C10            3.6459     2.1426     0.0159 C.ar    
  11 N11            5.8568     2.2821     0.0379 N.pl3   
  12 C12            5.3128     3.5190     0.0726 C.2     
  13 N13            4.0108     3.4324     0.0593 N.2     
  14 N14            5.8932    -0.7727    -0.0572 N.pl3   
  15 C15            6.0940     4.8069     0.1188 C.3     
  16 C16            6.4551     5.1326     1.5695 C.3     
  17 C17            7.2482     6.4402     1.6164 C.3     
  18 C18            8.5292     6.2895     0.7935 C.3     
  19 C19            8.1681     5.9638    -0.6571 C.3     
  20 C20            7.3750     4.6563    -0.7041 C.3     
  21 C21            7.1307    -0.1553    -0.1689 C.2     
  22 C22            5.8429    -2.2362     0.0512 C.3     
  23 C23            6.9048    -2.6927     1.0205 C.2     
  24 C24            8.0117    -1.9671     1.1827 C.2     
  25 C25            8.1906    -0.7245     0.4296 C.2     
  26 Cl26           9.2395    -2.4929     2.2915 Cl      
  27 H27           -0.9625     1.9085    -0.0271 H       
  28 H28           -0.9307    -0.5468    -0.0975 H       
  29 H29            1.1774    -1.7683    -0.1208 H       
  30 H30            1.1233     3.1782     0.0308 H       
  31 H31            6.8033     2.0700     0.0384 H       
  32 H32            5.4891     5.6138    -0.2950 H       
  33 H33            5.5424     5.2400     2.1557 H       
  34 H34            7.0599     4.3257     1.9833 H       
  35 H35            6.6433     7.2470     1.2026 H       
  36 H36            7.5054     6.6722     2.6499 H       
  37 H37            9.0942     7.2210     0.8270 H       
  38 H38            9.1340     5.4826     1.2073 H       
  39 H39            7.5633     6.7707    -1.0709 H       
  40 H40            9.0807     5.8565    -1.2434 H       
  41 H41            7.9799     3.8494    -0.2903 H       
  42 H42            7.1178     4.4243    -1.7376 H       
  43 H43            7.2399     0.7636    -0.7257 H       
  44 H44            4.8617    -2.5417     0.4144 H       
  45 H45            6.0263    -2.6809    -0.9269 H       
  46 H46            6.7687    -3.6051     1.5821 H       
  47 H47            9.1670    -0.2695     0.3526 H       
@<TRIPOS>BOND
   1    1    2 ar
   2    1    6 ar
   3    1   27 1
   4    2    3 ar
   5    2   28 1
   6    3    4 ar
   7    3   29 1
   8    4    5 ar
   9    4    7 ar
  10    5    6 ar
  11    5   10 ar
  12    6   30 1
  13    7    8 ar
  14    8    9 ar
  15    8   14 1
  16    9   10 ar
  17    9   11 1
  18   10   13 1
  19   11   12 1
  20   11   31 1
  21   12   13 2
  22   12   15 1
  23   14   21 1
  24   14   22 1
  25   15   16 1
  26   15   20 1
  27   15   32 1
  28   16   17 1
  29   16   33 1
  30   16   34 1
  31   17   18 1
  32   17   35 1
  33   17   36 1
  34   18   19 1
  35   18   37 1
  36   18   38 1
  37   19   20 1
  38   19   39 1
  39   19   40 1
  40   20   41 1
  41   20   42 1
  42   21   25 2
  43   21   43 1
  44   22   23 1
  45   22   44 1
  46   22   45 1
  47   23   24 2
  48   23   46 1
  49   24   25 1
  50   24   26 1
  51   25   47 1

#	End of record

