#	Name: ASD09740695
#	Creating user name:	WinNT
#	Creation time:	15. 06. 2019 21:23

#	Modifying user name:	WinNT
#	Modification time:	15. 06. 2019 21:23

#	Program:	/corina/corina34_cracker 3.40 0067  02.08.2006

@<TRIPOS>MOLECULE
ASD09740695
  69   73    0    0    0
SMALL
NO_CHARGES


@<TRIPOS>ATOM
   1 C1             0.9060     1.1799     0.5445 C.3     
   2 C2             1.4715    -0.2292     0.7329 C.3     
   3 N3             0.3748    -1.1621     1.0240 N.3     
   4 C4             0.8431    -2.5594     0.9769 C.3     
   5 C5             0.5181    -3.1968     2.3442 C.3     
   6 C6            -0.6238    -2.2975     2.8865 C.3     
   7 C7            -0.2002    -0.9031     2.3612 C.3     
   8 O8             0.0665    -4.5426     2.1797 O.3     
   9 S9             2.2604     2.3319     0.1850 S.o2    
  10 O10            3.0236     2.5855     1.3565 O.2     
  11 O11            2.8921     1.9917    -1.0415 O.2     
  12 N12            1.5054     3.7718    -0.1301 N.am    
  13 C13            0.7309     4.4380     0.9199 C.3     
  14 C14            1.3883     5.7819     1.2994 C.3     
  15 C15            0.6565     6.7796     0.3765 C.3     
  16 C16           -0.6882     6.1446     0.0950 C.ar    
  17 C17           -1.8690     6.7053    -0.4011 C.ar    
  18 C18           -2.9977     5.9057    -0.5786 C.ar    
  19 C19           -2.9428     4.5636    -0.2632 C.ar    
  20 C20           -1.7733     4.0142     0.2273 C.ar    
  21 C21           -0.6461     4.8016     0.4065 C.ar    
  22 S22           -3.3203     9.0131    -1.3698 S.3     
  23 C23           -1.9212     8.1440    -0.7366 C.2     
  24 N24           -0.9403     8.9974    -0.6166 N.2     
  25 N25           -1.1605    10.1933    -0.9507 N.2     
  26 C26           -2.3537    10.4893    -1.3922 C.2     
  27 C27           -2.8128    11.8237    -1.8318 C.ar    
  28 C28           -1.9388    12.9072    -1.7964 C.ar    
  29 C29           -2.3772    14.1635    -2.2122 C.ar    
  30 C30           -3.6957    14.3267    -2.6632 C.ar    
  31 C31           -4.5578    13.2401    -2.6941 C.ar    
  32 C32           -4.1226    11.9968    -2.2884 C.ar    
  33 O33           -4.1278    15.5472    -3.0686 O.3     
  34 C34           -5.5123    15.6677    -3.4011 C.3     
  35 C35           -5.9539    17.1222    -3.2269 C.3     
  36 C36           -5.7269    15.2401    -4.8543 C.3     
  37 C37           -1.4852    15.2833    -2.1787 C.1     
  38 N38           -0.7776    16.1716    -2.1522 N.1     
  39 H39            0.1992     1.1798    -0.2853 H       
  40 H40            0.3962     1.4917     1.4561 H       
  41 H41            1.9814    -0.5409    -0.1787 H       
  42 H42            2.1784    -0.2291     1.5626 H       
  43 H43            0.3241    -3.0979     0.1840 H       
  44 H44            1.9188    -2.5843     0.8025 H       
  45 H45            1.3853    -3.1580     3.0034 H       
  46 H46           -1.5864    -2.5954     2.4708 H       
  47 H47           -0.6492    -2.3131     3.9761 H       
  48 H48            0.5497    -0.4620     3.0178 H       
  49 H49           -1.0678    -0.2482     2.2809 H       
  50 H50           -0.1512    -4.9886     3.0096 H       
  51 H51            1.5760     4.1741    -1.0099 H       
  52 H52            0.6502     3.7955     1.7968 H       
  53 H53            1.2077     6.0195     2.3477 H       
  54 H54            2.4565     5.7657     1.0830 H       
  55 H55            0.5247     7.7361     0.8823 H       
  56 H56            1.2127     6.9148    -0.5511 H       
  57 H57           -3.9116     6.3355    -0.9613 H       
  58 H58           -3.8151     3.9416    -0.3994 H       
  59 H59           -1.7371     2.9631     0.4730 H       
  60 H60           -0.9252    12.7749    -1.4479 H       
  61 H61           -5.5723    13.3680    -3.0416 H       
  62 H62           -4.7974    11.1541    -2.3191 H       
  63 H63           -6.1010    15.0281    -2.7434 H       
  64 H64           -5.3653    17.7618    -3.8846 H       
  65 H65           -7.0100    17.2141    -3.4806 H       
  66 H66           -5.8010    17.4268    -2.1916 H       
  67 H67           -5.1383    15.8797    -5.5120 H       
  68 H68           -5.4123    14.2038    -4.9784 H       
  69 H69           -6.7830    15.3320    -5.1080 H       
@<TRIPOS>BOND
   1    1    2 1
   2    1    9 1
   3    1   39 1
   4    1   40 1
   5    2    3 1
   6    2   41 1
   7    2   42 1
   8    3    4 1
   9    3    7 1
  10    4    5 1
  11    4   43 1
  12    4   44 1
  13    5    6 1
  14    5    8 1
  15    5   45 1
  16    6    7 1
  17    6   46 1
  18    6   47 1
  19    7   48 1
  20    7   49 1
  21    8   50 1
  22    9   10 2
  23    9   11 2
  24    9   12 am
  25   12   13 1
  26   12   51 1
  27   13   14 1
  28   13   21 1
  29   13   52 1
  30   14   15 1
  31   14   53 1
  32   14   54 1
  33   15   16 1
  34   15   55 1
  35   15   56 1
  36   16   17 ar
  37   16   21 ar
  38   17   18 ar
  39   17   23 1
  40   18   19 ar
  41   18   57 1
  42   19   20 ar
  43   19   58 1
  44   20   21 ar
  45   20   59 1
  46   22   23 1
  47   22   26 1
  48   23   24 2
  49   24   25 1
  50   25   26 2
  51   26   27 1
  52   27   28 ar
  53   27   32 ar
  54   28   29 ar
  55   28   60 1
  56   29   30 ar
  57   29   37 1
  58   30   31 ar
  59   30   33 1
  60   31   32 ar
  61   31   61 1
  62   32   62 1
  63   33   34 1
  64   34   35 1
  65   34   36 1
  66   34   63 1
  67   35   64 1
  68   35   65 1
  69   35   66 1
  70   36   67 1
  71   36   68 1
  72   36   69 1
  73   37   38 3

#	End of record

