#	Name: ASD07930385
#	Creating user name:	WinNT
#	Creation time:	15. 06. 2019 21:12

#	Modifying user name:	WinNT
#	Modification time:	15. 06. 2019 21:12

#	Program:	/corina/corina34_cracker 3.40 0067  02.08.2006

@<TRIPOS>MOLECULE
ASD07930385
  48   50    0    0    0
SMALL
NO_CHARGES


@<TRIPOS>ATOM
   1 N1            -0.0045     1.2783     0.0188 N.2     
   2 N2            -1.1649    -0.7501     0.0206 N.pl3   
   3 C3            -1.3888    -1.7859    -0.9933 C.3     
   4 C4            -0.2707    -2.8336    -0.9020 C.3     
   5 S5             1.3272    -1.9812    -1.0876 S.o2    
   6 N6             1.2045    -0.7295     0.0055 N.am    
   7 C7             0.0090    -0.0250     0.0153 C.2     
   8 C8             2.3043    -0.3899     0.9118 C.3     
   9 C9            -1.3801    -1.1494    -2.3846 C.3     
  10 C10           -2.7204    -2.4485    -0.7504 C.ar    
  11 C11           -3.7514    -1.7336    -0.1736 C.ar    
  12 C12           -4.9786    -2.3450     0.0496 C.ar    
  13 C13           -5.1643    -3.6739    -0.3085 C.ar    
  14 C14           -4.1288    -4.3833    -0.8851 C.ar    
  15 C15           -2.9102    -3.7703    -1.1106 C.ar    
  16 N16           -6.0247    -1.6241     0.6339 N.am    
  17 C17           -7.2974    -1.8588     0.2577 C.2     
  18 O18           -7.5293    -2.6256    -0.6561 O.2     
  19 C19           -8.4135    -1.1821     0.9581 C.ar    
  20 N20           -8.1539    -0.3457     1.9555 N.ar    
  21 C21           -9.1156     0.2753     2.6032 C.ar    
  22 C22          -10.4446     0.0771     2.2651 C.ar    
  23 C23          -10.7606    -0.7883     1.2293 C.ar    
  24 C24           -9.7267    -1.4245     0.5608 C.ar    
  25 O25            2.3885    -2.7858    -0.5921 O.2     
  26 O26            1.4140    -1.3426    -2.3540 O.2     
  27 C27          -11.5359     0.7951     3.0165 C.3     
  28 F28          -10.9667     1.6033     4.0064 F       
  29 F29          -12.2676     1.5909     2.1285 F       
  30 F30          -12.3866    -0.1424     3.6120 F       
  31 H31            0.8305     1.7720     0.0146 H       
  32 H32           -1.8427    -0.5724     0.6914 H       
  33 H33           -0.3115    -3.3309     0.0671 H       
  34 H34           -0.3898    -3.5685    -1.6981 H       
  35 H35            2.9545     0.3438     0.4352 H       
  36 H36            1.8996     0.0278     1.8337 H       
  37 H37            2.8771    -1.2885     1.1408 H       
  38 H38           -0.4159    -0.6722    -2.5598 H       
  39 H39           -1.5465    -1.9196    -3.1376 H       
  40 H40           -2.1717    -0.4027    -2.4474 H       
  41 H41           -3.6037    -0.7004     0.1041 H       
  42 H42           -6.1171    -4.1523    -0.1360 H       
  43 H43           -4.2725    -5.4168    -1.1638 H       
  44 H44           -2.1023    -4.3271    -1.5619 H       
  45 H45           -5.8343    -0.9552     1.3100 H       
  46 H46           -8.8659     0.9485     3.4099 H       
  47 H47          -11.7889    -0.9598     0.9471 H       
  48 H48           -9.9364    -2.1050    -0.2513 H       
@<TRIPOS>BOND
   1    1    7 2
   2    1   31 1
   3    2    3 1
   4    2    7 1
   5    2   32 1
   6    3    4 1
   7    3    9 1
   8    3   10 1
   9    4    5 1
  10    4   33 1
  11    4   34 1
  12    5    6 am
  13    5   25 2
  14    5   26 2
  15    6    7 1
  16    6    8 1
  17    8   35 1
  18    8   36 1
  19    8   37 1
  20    9   38 1
  21    9   39 1
  22    9   40 1
  23   10   11 ar
  24   10   15 ar
  25   11   12 ar
  26   11   41 1
  27   12   13 ar
  28   12   16 1
  29   13   14 ar
  30   13   42 1
  31   14   15 ar
  32   14   43 1
  33   15   44 1
  34   16   17 am
  35   16   45 1
  36   17   18 2
  37   17   19 1
  38   19   20 ar
  39   19   24 ar
  40   20   21 ar
  41   21   22 ar
  42   21   46 1
  43   22   23 ar
  44   22   27 1
  45   23   24 ar
  46   23   47 1
  47   24   48 1
  48   27   28 1
  49   27   29 1
  50   27   30 1

#	End of record

