#	Name: ASD03082273
#	Creating user name:	WinNT
#	Creation time:	15. 06. 2019 20:27

#	Modifying user name:	WinNT
#	Modification time:	15. 06. 2019 20:27

#	Program:	/corina/corina34_cracker 3.40 0067  02.08.2006

@<TRIPOS>MOLECULE
ASD03082273
  55   57    0    0    0
SMALL
NO_CHARGES


@<TRIPOS>ATOM
   1 N1             0.0122     1.3999     0.2509 N.am    
   2 N2             0.0089     0.0004     0.1337 N.2     
   3 C3             1.2289    -0.3613    -0.1857 C.2     
   4 N4             2.0018     0.7246    -0.2772 N.2     
   5 C5             1.2895     1.8016    -0.0178 C.2     
   6 N6             1.6524    -1.6729    -0.3959 N.pl3   
   7 C7             0.7785    -2.7364    -0.1550 C.ar    
   8 C8             0.9508    -3.9423    -0.8212 C.ar    
   9 C9             0.0821    -4.9945    -0.5796 C.ar    
  10 C10           -0.9578    -4.8409     0.3271 C.ar    
  11 C11           -1.1279    -3.6401     0.9893 C.ar    
  12 C12           -0.2606    -2.5904     0.7556 C.ar    
  13 O13            0.2477    -6.1760    -1.2303 O.3     
  14 C14            1.7835     3.1942    -0.0178 C.ar    
  15 C15           -1.0359     2.1886     0.5605 C.2     
  16 C16            0.9557     4.2299    -0.4541 C.ar    
  17 C17            1.4182     5.5293    -0.4536 C.ar    
  18 C18            2.7054     5.8104    -0.0202 C.ar    
  19 C19            3.5373     4.7809     0.4163 C.ar    
  20 C20            3.0777     3.4777     0.4241 C.ar    
  21 N21           -2.2663     1.6541     0.6900 N.am    
  22 C22           -3.4057     2.5114     1.0265 C.3     
  23 O23           -0.8715     3.3816     0.7228 O.2     
  24 O24            3.1566     7.0923    -0.0215 O.3     
  25 C25           -4.6972     1.8645     0.5222 C.3     
  26 C26            2.2519     8.0980    -0.4820 C.3     
  27 O27            4.7991     5.0596     0.8403 O.3     
  28 C28            5.5964     3.9558     1.2738 C.3     
  29 C29           -3.4817     2.6859     2.5446 C.3     
  30 C30           -0.6848    -7.2170    -0.9323 C.3     
  31 F31           -1.9782    -6.7900    -1.2518 F       
  32 F32           -0.3701    -8.3542    -1.6841 F       
  33 F33           -0.6190    -7.5260     0.4305 F       
  34 H34            2.5537    -1.8472    -0.7092 H       
  35 H35            1.7601    -4.0599    -1.5265 H       
  36 H36           -1.6350    -5.6609     0.5150 H       
  37 H37           -1.9378    -3.5234     1.6942 H       
  38 H38           -0.3931    -1.6543     1.2778 H       
  39 H39           -0.0469     4.0137    -0.7924 H       
  40 H40            0.7767     6.3297    -0.7917 H       
  41 H41            3.7213     2.6789     0.7621 H       
  42 H42           -2.3976     0.7018     0.5604 H       
  43 H43           -3.2790     3.4858     0.5547 H       
  44 H44           -4.8238     0.8901     0.9940 H       
  45 H45           -5.5449     2.5023     0.7725 H       
  46 H46           -4.6430     1.7402    -0.5594 H       
  47 H47            1.9675     7.8865    -1.5128 H       
  48 H48            1.3617     8.1015     0.1471 H       
  49 H49            2.7363     9.0732    -0.4315 H       
  50 H50            5.1076     3.4621     2.1137 H       
  51 H51            5.7128     3.2474     0.4536 H       
  52 H52            6.5771     4.3160     1.5847 H       
  53 H53           -4.3294     3.3238     2.7950 H       
  54 H54           -3.6083     1.7115     3.0165 H       
  55 H55           -2.5616     3.1468     2.9039 H       
@<TRIPOS>BOND
   1    1    2 1
   2    1    5 1
   3    1   15 am
   4    2    3 2
   5    3    4 1
   6    3    6 1
   7    4    5 2
   8    5   14 1
   9    6    7 1
  10    6   34 1
  11    7    8 ar
  12    7   12 ar
  13    8    9 ar
  14    8   35 1
  15    9   10 ar
  16    9   13 1
  17   10   11 ar
  18   10   36 1
  19   11   12 ar
  20   11   37 1
  21   12   38 1
  22   13   30 1
  23   14   16 ar
  24   14   20 ar
  25   15   21 am
  26   15   23 2
  27   16   17 ar
  28   16   39 1
  29   17   18 ar
  30   17   40 1
  31   18   19 ar
  32   18   24 1
  33   19   20 ar
  34   19   27 1
  35   20   41 1
  36   21   22 1
  37   21   42 1
  38   22   25 1
  39   22   29 1
  40   22   43 1
  41   24   26 1
  42   25   44 1
  43   25   45 1
  44   25   46 1
  45   26   47 1
  46   26   48 1
  47   26   49 1
  48   27   28 1
  49   28   50 1
  50   28   51 1
  51   28   52 1
  52   29   53 1
  53   29   54 1
  54   29   55 1
  55   30   31 1
  56   30   32 1
  57   30   33 1

#	End of record

