#	Name: ASD01028194
#	Creating user name:	WinNT
#	Creation time:	15. 06. 2019 18:56

#	Modifying user name:	WinNT
#	Modification time:	15. 06. 2019 18:56

#	Program:	/corina/corina34_cracker 3.40 0067  02.08.2006

@<TRIPOS>MOLECULE
ASD01028194
  48   52    0    0    0
SMALL
NO_CHARGES


@<TRIPOS>ATOM
   1 C1            -0.0164     1.3617     0.0095 C.ar    
   2 C2             0.0021    -0.0041     0.0020 C.ar    
   3 C3             1.1734     2.0970     0.0021 C.ar    
   4 C4             2.3800     1.4696    -0.0128 C.ar    
   5 C5             2.4342     0.0656    -0.0209 C.ar    
   6 C6             1.2310    -0.6837    -0.0134 C.ar    
   7 C7             3.6634    -0.6187    -0.0358 C.ar    
   8 C8             3.6412    -1.9849    -0.0425 C.ar    
   9 C9             2.4234    -2.6605    -0.0346 C.ar    
  10 N10            1.2794    -2.0201    -0.0201 N.ar    
  11 C11            4.9686     0.1344    -0.0446 C.3     
  12 C12            5.3612     0.4913     1.3905 C.3     
  13 C13            6.6665     1.2444     1.3817 C.2     
  14 N14            6.8133     2.5844     1.2916 N.pl3   
  15 C15            8.1674     2.8204     1.3211 C.2     
  16 N16            8.7591     1.6417     1.4250 N.2     
  17 N17            7.8630     0.7183     1.4656 N.2     
  18 N18            5.9188     3.6513     1.1852 N.2     
  19 C19            6.3611     4.8872     1.1127 C.2     
  20 C20            7.7448     5.1619     1.1400 C.2     
  21 C21            8.6398     4.1443     1.2437 C.2     
  22 C22            5.3937     6.0065     1.0001 C.ar    
  23 C23            4.0247     5.7475     0.9717 C.ar    
  24 C24            5.8505     7.3211     0.9283 C.ar    
  25 C25            4.9461     8.3584     0.8242 C.ar    
  26 C26            3.5885     8.0951     0.7916 C.ar    
  27 C27            3.1293     6.7925     0.8674 C.ar    
  28 O28           -1.2073     2.0150     0.0187 O.3     
  29 C29           -1.1635     3.4433     0.0263 C.3     
  30 H30           -0.9244    -0.5590     0.0083 H       
  31 H31            1.1335     3.1763     0.0080 H       
  32 H32            3.2921     2.0479    -0.0188 H       
  33 H33            4.5673    -2.5403    -0.0543 H       
  34 H34            2.4214    -3.7405    -0.0401 H       
  35 H35            5.7446    -0.4887    -0.4892 H       
  36 H36            4.8571     1.0479    -0.6287 H       
  37 H37            4.5852     1.1144     1.8351 H       
  38 H38            5.4727    -0.4222     1.9745 H       
  39 H39            8.0933     6.1823     1.0792 H       
  40 H40            9.7001     4.3486     1.2655 H       
  41 H41            3.6651     4.7308     1.0308 H       
  42 H42            6.9102     7.5278     0.9544 H       
  43 H43            5.2990     9.3776     0.7685 H       
  44 H44            2.8843     8.9100     0.7108 H       
  45 H45            2.0683     6.5926     0.8411 H       
  46 H46           -2.1796     3.8379     0.0332 H       
  47 H47           -0.6346     3.7860     0.9156 H       
  48 H48           -0.6430     3.7956    -0.8643 H       
@<TRIPOS>BOND
   1    1    2 ar
   2    1    3 ar
   3    1   28 1
   4    2    6 ar
   5    2   30 1
   6    3    4 ar
   7    3   31 1
   8    4    5 ar
   9    4   32 1
  10    5    6 ar
  11    5    7 ar
  12    6   10 ar
  13    7    8 ar
  14    7   11 1
  15    8    9 ar
  16    8   33 1
  17    9   10 ar
  18    9   34 1
  19   11   12 1
  20   11   35 1
  21   11   36 1
  22   12   13 1
  23   12   37 1
  24   12   38 1
  25   13   14 1
  26   13   17 2
  27   14   15 1
  28   14   18 1
  29   15   16 2
  30   15   21 1
  31   16   17 1
  32   18   19 2
  33   19   20 1
  34   19   22 1
  35   20   21 2
  36   20   39 1
  37   21   40 1
  38   22   23 ar
  39   22   24 ar
  40   23   27 ar
  41   23   41 1
  42   24   25 ar
  43   24   42 1
  44   25   26 ar
  45   25   43 1
  46   26   27 ar
  47   26   44 1
  48   27   45 1
  49   28   29 1
  50   29   46 1
  51   29   47 1
  52   29   48 1

#	End of record

