#	Name: ASD08070077
#	Creating user name:	WinNT
#	Creation time:	15. 06. 2019 21:14

#	Modifying user name:	WinNT
#	Modification time:	15. 06. 2019 21:14

#	Program:	/corina/corina34_cracker 3.40 0067  02.08.2006

@<TRIPOS>MOLECULE
ASD08070077
  41   41    0    0    0
SMALL
NO_CHARGES


@<TRIPOS>ATOM
   1 C1            -0.0166     1.3735     0.0096 C.ar    
   2 C2             0.0021    -0.0041     0.0020 C.ar    
   3 C3             1.1751     2.0867     0.0020 C.ar    
   4 C4             2.3933     1.4131    -0.0133 C.ar    
   5 C5             2.4198     0.0348    -0.0210 C.ar    
   6 C6             1.2216    -0.6849    -0.0133 C.ar    
   7 C7             1.2450    -2.1607    -0.0215 C.2     
   8 O8             2.3074    -2.7518    -0.0349 O.2     
   9 C9             0.2318    -4.8180    -1.4632 C.3     
  10 C10            0.1118    -4.3178    -0.0223 C.3     
  11 N11            0.0887    -2.8530    -0.0142 N.am    
  12 C12           -1.1814    -4.8518     0.5969 C.3     
  13 C13           -1.2410    -4.4561     2.0736 C.3     
  14 O14            1.1520     3.4441     0.0091 O.3     
  15 C15           -2.5342    -4.9901     2.6929 C.3     
  16 C16           -0.1320     4.0710     0.0244 C.3     
  17 F17            3.5503     2.1106    -0.0210 F       
  18 C18            1.5817    -4.3886    -2.0414 C.3     
  19 C19            1.7017    -4.8888    -3.4824 C.3     
  20 H20           -0.9597     1.8998     0.0169 H       
  21 H21           -0.9255    -0.5571     0.0083 H       
  22 H22            3.3648    -0.4880    -0.0332 H       
  23 H23            0.1598    -5.9055    -1.4775 H       
  24 H24           -0.5724    -4.3927    -2.0636 H       
  25 H25            0.9649    -4.6709     0.5571 H       
  26 H26           -0.7589    -2.3814    -0.0035 H       
  27 H27           -2.0375    -4.4278     0.0723 H       
  28 H28           -1.2040    -5.9382     0.5106 H       
  29 H29           -0.3849    -4.8802     2.5983 H       
  30 H30           -1.2184    -3.3698     2.1599 H       
  31 H31           -2.5768    -4.7082     3.7449 H       
  32 H32           -3.3904    -4.5661     2.1682 H       
  33 H33           -2.5568    -6.0765     2.6066 H       
  34 H34           -0.6923     3.7732    -0.8619 H       
  35 H35           -0.6756     3.7642     0.9179 H       
  36 H36           -0.0076     5.1539     0.0287 H       
  37 H37            1.6537    -3.3011    -2.0271 H       
  38 H38            2.3859    -4.8139    -1.4411 H       
  39 H39            0.8974    -4.4635    -4.0827 H       
  40 H40            2.6634    -4.5829    -3.8943 H       
  41 H41            1.6297    -5.9763    -3.4967 H       
@<TRIPOS>BOND
   1    1    2 ar
   2    1    3 ar
   3    1   20 1
   4    2    6 ar
   5    2   21 1
   6    3    4 ar
   7    3   14 1
   8    4    5 ar
   9    4   17 1
  10    5    6 ar
  11    5   22 1
  12    6    7 1
  13    7    8 2
  14    7   11 am
  15    9   10 1
  16    9   18 1
  17    9   23 1
  18    9   24 1
  19   10   12 1
  20   10   11 1
  21   10   25 1
  22   11   26 1
  23   12   13 1
  24   12   27 1
  25   12   28 1
  26   13   15 1
  27   13   29 1
  28   13   30 1
  29   14   16 1
  30   15   31 1
  31   15   32 1
  32   15   33 1
  33   16   34 1
  34   16   35 1
  35   16   36 1
  36   18   19 1
  37   18   37 1
  38   18   38 1
  39   19   39 1
  40   19   40 1
  41   19   41 1

#	End of record

