#	Name: ASD01028050
#	Creating user name:	WinNT
#	Creation time:	15. 06. 2019 18:56

#	Modifying user name:	WinNT
#	Modification time:	15. 06. 2019 18:56

#	Program:	/corina/corina34_cracker 3.40 0067  02.08.2006

@<TRIPOS>MOLECULE
ASD01028050
  51   55    0    0    0
SMALL
NO_CHARGES


@<TRIPOS>ATOM
   1 C1            -0.0187     1.5259     0.0104 C.3     
   2 C2             0.0021    -0.0041     0.0020 C.3     
   3 C3             1.4110     2.0692    -0.0003 C.3     
   4 N4             2.5649     3.6110     3.2709 N.3     
   5 N5            -0.0598     1.3525     4.5354 N.pl3   
   6 C6             0.5549     2.0666     5.5810 C.ar    
   7 C7             1.8246     2.5797     5.3466 C.ar    
   8 C8             2.4966     2.3479     4.0171 C.3     
   9 C9            -0.0670     2.2713     6.8023 C.ar    
  10 C10            0.5867     2.9982     7.7915 C.ar    
  11 C11            1.8523     3.5143     7.5488 C.ar    
  12 C12            2.4686     3.3009     6.3303 C.ar    
  13 C13           -1.8976    -0.5767     1.3255 C.ar    
  14 C14           -1.2901     0.0787     2.3632 C.ar    
  15 C15           -1.8669     0.0363     3.6383 C.ar    
  16 C16           -1.2624     0.6921     4.7418 C.ar    
  17 N17           -1.8632     0.6255     5.9160 N.ar    
  18 O18           -1.2861     1.8782     7.2696 O.3     
  19 C19           -1.4159     2.3679     8.6084 C.3     
  20 O20           -0.2039     3.0705     8.8985 O.3     
  21 C21           -3.0831    -1.2953     1.5361 C.ar    
  22 C22           -3.6713    -1.3435     2.7846 C.ar    
  23 C23           -3.0695    -0.6761     3.8584 C.ar    
  24 N24           -3.5870    -0.6894     5.0974 N.ar    
  25 C25           -2.9909    -0.0531     6.0794 C.ar    
  26 O26           -3.6613    -1.9527     0.4974 O.3     
  27 C27            1.8626     3.5260     1.9877 C.3     
  28 O28           -1.3347    -0.5083     0.0903 O.3     
  29 C29            1.9592     2.1073     1.4294 C.3     
  30 H30           -0.5488     1.8853    -0.8716 H       
  31 H31           -0.5318     1.8757     0.9062 H       
  32 H32            0.4613    -0.3551    -0.9221 H       
  33 H33            0.5816    -0.3632     0.8524 H       
  34 H34            2.0399     1.4231    -0.6128 H       
  35 H35            1.4131     3.0766    -0.4165 H       
  36 H36            2.2142     4.3778     3.8250 H       
  37 H37            0.3612     1.3220     3.6620 H       
  38 H38            1.9249     1.6178     3.4443 H       
  39 H39            3.5053     1.9693     4.1818 H       
  40 H40            2.3570     4.0846     8.3147 H       
  41 H41            3.4558     3.6992     6.1482 H       
  42 H42           -0.3725     0.6242     2.1992 H       
  43 H43           -2.2673     3.0449     8.6787 H       
  44 H44           -1.5413     1.5357     9.3011 H       
  45 H45           -4.5897    -1.8925     2.9318 H       
  46 H46           -3.4385    -0.0830     7.0618 H       
  47 H47           -3.3571    -2.8644     0.3907 H       
  48 H48            0.8141     3.7873     2.1315 H       
  49 H49            2.3135     4.2237     1.2820 H       
  50 H50            1.3792     1.4310     2.0574 H       
  51 H51            3.0020     1.7902     1.4256 H       
@<TRIPOS>BOND
   1    1    2 1
   2    1    3 1
   3    1   30 1
   4    1   31 1
   5    2   28 1
   6    2   32 1
   7    2   33 1
   8    3   29 1
   9    3   34 1
  10    3   35 1
  11    4   27 1
  12    4    8 1
  13    4   36 1
  14    5    6 1
  15    5   16 1
  16    5   37 1
  17    6    7 ar
  18    6    9 ar
  19    7    8 1
  20    7   12 ar
  21    8   38 1
  22    8   39 1
  23    9   10 ar
  24    9   18 1
  25   10   11 ar
  26   10   20 1
  27   11   12 ar
  28   11   40 1
  29   12   41 1
  30   13   14 ar
  31   13   21 ar
  32   13   28 1
  33   14   15 ar
  34   14   42 1
  35   15   16 ar
  36   15   23 ar
  37   16   17 ar
  38   17   25 ar
  39   18   19 1
  40   19   20 1
  41   19   43 1
  42   19   44 1
  43   21   22 ar
  44   21   26 1
  45   22   23 ar
  46   22   45 1
  47   23   24 ar
  48   24   25 ar
  49   25   46 1
  50   26   47 1
  51   27   29 1
  52   27   48 1
  53   27   49 1
  54   29   50 1
  55   29   51 1

#	End of record

