#	Name: ASD03910145
#	Creating user name:	WinNT
#	Creation time:	15. 06. 2019 20:47

#	Modifying user name:	WinNT
#	Modification time:	15. 06. 2019 20:47

#	Program:	/corina/corina34_cracker 3.40 0067  02.08.2006

@<TRIPOS>MOLECULE
ASD03910145
  48   48    0    0    0
SMALL
NO_CHARGES


@<TRIPOS>ATOM
   1 C1            -0.4415     1.7670    -0.5726 C.ar    
   2 C2            -0.3147     0.3919    -0.5518 C.ar    
   3 C3             0.5206     2.5606     0.0248 C.ar    
   4 C4             1.6122     1.9807     0.6447 C.ar    
   5 C5             1.7448     0.6061     0.6689 C.ar    
   6 C6             0.7803    -0.1937     0.0699 C.ar    
   7 C7            -1.6263     2.4035    -1.2524 C.3     
   8 C8             2.6585     2.8494     1.2940 C.3     
   9 N9             0.9115    -1.5866     0.0932 N.am    
  10 C10           -0.1850    -2.3653     0.1816 C.2     
  11 C11           -0.0540    -3.8639     0.0927 C.3     
  12 O12           -1.2771    -1.8599     0.3328 O.2     
  13 C13           -1.4164    -4.4956     0.2191 C.ar    
  14 C14           -2.1777    -4.7264    -0.9117 C.ar    
  15 C15           -3.4269    -5.3053    -0.7985 C.ar    
  16 C16           -3.9173    -5.6553     0.4512 C.ar    
  17 C17           -3.1514    -5.4227     1.5844 C.ar    
  18 C18           -1.9005    -4.8486     1.4652 C.ar    
  19 O19           -5.1460    -6.2245     0.5653 O.3     
  20 C20           -5.5354    -6.6722     1.8653 C.3     
  21 C21           -5.5734    -5.4989     2.8102 C.2     
  22 O22           -5.2929    -4.3827     2.4077 O.co2   
  23 O23           -5.8845    -5.6658     3.9772 O.co2   
  24 C24           -6.9235    -7.3115     1.7899 C.3     
  25 C25           -4.5259    -7.7036     2.3731 C.3     
  26 H26           -1.0666    -0.2274    -1.0182 H       
  27 H27            0.4193     3.6357     0.0068 H       
  28 H28            2.5977     0.1538     1.1529 H       
  29 H29           -2.4372     2.5218    -0.5337 H       
  30 H30           -1.3402     3.3806    -1.6416 H       
  31 H31           -1.9585     1.7683    -2.0736 H       
  32 H32            2.3899     3.0245     2.3357 H       
  33 H33            3.6259     2.3493     1.2473 H       
  34 H34            2.7165     3.8026     0.7685 H       
  35 H35            1.7915    -1.9917     0.0456 H       
  36 H36            0.3839    -4.1340    -0.8682 H       
  37 H37            0.5882    -4.2209     0.8978 H       
  38 H38           -1.7957    -4.4535    -1.8843 H       
  39 H39           -4.0214    -5.4851    -1.6820 H       
  40 H40           -3.5309    -5.6941     2.5583 H       
  41 H41           -1.3037    -4.6677     2.3470 H       
  42 H42           -6.8763    -8.2111     1.1763 H       
  43 H43           -7.2578    -7.5735     2.7938 H       
  44 H44           -7.6251    -6.6052     1.3461 H       
  45 H45           -3.5216    -7.2825     2.3265 H       
  46 H46           -4.7622    -7.9662     3.4043 H       
  47 H47           -4.5746    -8.5969     1.7504 H       
  48 Na48           8.6259     8.8026     8.9772 Du      
@<TRIPOS>BOND
   1    1    2 ar
   2    1    3 ar
   3    1    7 1
   4    2    6 ar
   5    2   26 1
   6    3    4 ar
   7    3   27 1
   8    4    5 ar
   9    4    8 1
  10    5    6 ar
  11    5   28 1
  12    6    9 1
  13    7   29 1
  14    7   30 1
  15    7   31 1
  16    8   32 1
  17    8   33 1
  18    8   34 1
  19    9   10 am
  20    9   35 1
  21   10   11 1
  22   10   12 2
  23   11   13 1
  24   11   36 1
  25   11   37 1
  26   13   14 ar
  27   13   18 ar
  28   14   15 ar
  29   14   38 1
  30   15   16 ar
  31   15   39 1
  32   16   17 ar
  33   16   19 1
  34   17   18 ar
  35   17   40 1
  36   18   41 1
  37   19   20 1
  38   20   21 1
  39   20   24 1
  40   20   25 1
  41   21   22 ar
  42   21   23 ar
  43   24   42 1
  44   24   43 1
  45   24   44 1
  46   25   45 1
  47   25   46 1
  48   25   47 1

#	End of record

