#	Name: ASD04570041
#	Creating user name:	WinNT
#	Creation time:	15. 06. 2019 20:49

#	Modifying user name:	WinNT
#	Modification time:	15. 06. 2019 20:49

#	Program:	/corina/corina34_cracker 3.40 0067  02.08.2006

@<TRIPOS>MOLECULE
ASD04570041
 325  325    0    0    0
SMALL
NO_CHARGES


@<TRIPOS>ATOM
   1 C1            -0.0187     1.5258     0.0104 C.3     
   2 C2             0.0021    -0.0041     0.0020 C.3     
   3 C3            -1.4333    -0.5336     0.0129 C.3     
   4 C4            -1.4126    -2.0635     0.0045 C.3     
   5 C5            -2.8479    -2.5931     0.0153 C.3     
   6 C6            -2.8272    -4.1229     0.0069 C.3     
   7 C7            -4.2626    -4.6525     0.0178 C.3     
   8 C8            -4.2418    -6.1823     0.0094 C.3     
   9 C9            -5.6772    -6.7119     0.0202 C.3     
  10 C10           -5.6565    -8.2417     0.0118 C.3     
  11 C11           -7.0918    -8.7713     0.0227 C.3     
  12 O12           -7.0725   -10.2002     0.0148 O.3     
  13 C13           -8.3699   -10.7991     0.0240 C.3     
  14 C14           -8.2284   -12.3225     0.0144 C.3     
  15 C15           -9.5966   -12.9541     0.0241 C.2     
  16 N16           -9.7193   -14.2963     0.0181 N.am    
  17 O17          -10.5873   -12.2547     0.0373 O.2     
  18 C18          -11.0494   -14.9103     0.0275 C.3     
  19 C19          -10.9100   -16.4108     0.0181 C.2     
  20 N20          -12.0098   -17.1898     0.0244 N.am    
  21 O21           -9.8082   -16.9175     0.0049 O.2     
  22 C22          -11.8744   -18.6485     0.0153 C.3     
  23 C23          -13.2426   -19.2801     0.0250 C.2     
  24 N24          -13.3653   -20.6223     0.0189 N.am    
  25 O25          -14.2333   -18.5807     0.0382 O.2     
  26 C26          -14.6954   -21.2363     0.0283 C.3     
  27 C27          -14.6175   -22.6127    -0.5803 C.2     
  28 O28          -13.5556   -23.0388    -0.9823 O.2     
  29 N29          -15.7280   -23.3702    -0.6779 N.am    
  30 C30          -15.1974   -21.3436     1.4696 C.3     
  31 C31          -15.3922   -19.9616     2.0379 C.ar    
  32 C32          -16.6130   -19.3262     1.9043 C.ar    
  33 C33          -15.6524   -24.7083    -1.2695 C.3     
  34 C34          -15.2357   -25.7172    -0.1974 C.3     
  35 C35          -17.0015   -25.0904    -1.8217 C.2     
  36 O36          -17.9344   -24.3208    -1.7300 O.2     
  37 N37          -17.1714   -26.2874    -2.4174 N.am    
  38 C38          -13.8148   -25.4023     0.2745 C.3     
  39 C39          -13.4044   -26.3960     1.3305 C.2     
  40 N40          -12.1835   -26.3135     1.8954 N.am    
  41 C41          -18.4829   -26.6588    -2.9542 C.3     
  42 C42          -18.6322   -26.0977    -4.3697 C.3     
  43 C43          -18.6024   -28.1606    -2.9939 C.2     
  44 O44          -17.6826   -28.8524    -2.6115 O.2     
  45 N45          -19.7315   -28.7348    -3.4544 N.am    
  46 C46          -19.8477   -30.1946    -3.4930 C.3     
  47 C47          -21.3246   -30.5903    -3.4385 C.3     
  48 C48          -19.2259   -30.7216    -4.7879 C.3     
  49 C49          -21.9150   -30.1729    -2.0902 C.3     
  50 C50          -23.3919   -30.5685    -2.0357 C.3     
  51 C51          -16.7942   -18.0593     2.4243 C.ar    
  52 C52          -15.7500   -17.4245     3.0811 C.ar    
  53 C53          -14.5261   -18.0641     3.2139 C.ar    
  54 C54          -14.3518   -19.3333     2.6970 C.ar    
  55 O55          -15.9256   -16.1780     3.5932 O.3     
  56 O56          -14.1728   -27.2700     1.6720 O.2     
  57 C57          -23.9823   -30.1511    -0.6873 C.3     
  58 N58          -25.4004   -30.5310    -0.6350 N.3     
  59 C59            1.4167     2.0553    -0.0004 C.3     
  60 H60           -8.9269   -14.8557     0.0075 H       
  61 C61          -18.6357   -24.5687    -4.3145 C.3     
  62 C62          -18.7850   -24.0076    -5.7300 C.3     
  63 C63          -18.7886   -22.4786    -5.6747 C.3     
  64 N64          -18.9319   -21.9398    -7.0338 N.3     
  65 H65           -0.5459     1.8868    -0.8726 H       
  66 H66           -0.5289     1.8773     0.9072 H       
  67 H67            0.5123    -0.3556    -0.8948 H       
  68 H68            0.5293    -0.3651     0.8851 H       
  69 H69           -1.9435    -0.1821     0.9097 H       
  70 H70           -1.9605    -0.1726    -0.8702 H       
  71 H71           -0.9024    -2.4150    -0.8923 H       
  72 H72           -0.8854    -2.4246     0.8875 H       
  73 H73           -3.3581    -2.2415     0.9121 H       
  74 H74           -3.3751    -2.2320    -0.8677 H       
  75 H75           -2.3170    -4.4744    -0.8899 H       
  76 H76           -2.3000    -4.4840     0.8900 H       
  77 H77           -4.7728    -4.3010     0.9146 H       
  78 H78           -4.7898    -4.2914    -0.8653 H       
  79 H79           -3.7316    -6.5338    -0.8874 H       
  80 H80           -3.7146    -6.5434     0.8924 H       
  81 H81           -6.1874    -6.3604     0.9170 H       
  82 H82           -6.2044    -6.3508    -0.8628 H       
  83 H83           -5.1463    -8.5933    -0.8850 H       
  84 H84           -5.1293    -8.6028     0.8949 H       
  85 H85           -7.6020    -8.4198     0.9195 H       
  86 H86           -7.6190    -8.4102    -0.8604 H       
  87 H87           -8.9066   -10.4897     0.9208 H       
  88 H88           -8.9236   -10.4801    -0.8591 H       
  89 H89           -7.6917   -12.6320    -0.8824 H       
  90 H90           -7.6747   -12.6415     0.8975 H       
  91 H91          -11.5861   -14.6009     0.9243 H       
  92 H92          -11.6031   -14.5913    -0.8556 H       
  93 H93          -12.8911   -16.7846     0.0350 H       
  94 H94          -11.3377   -18.9580    -0.8815 H       
  95 H95          -11.3207   -18.9675     0.8983 H       
  96 H96          -12.5729   -21.1817     0.0084 H       
  97 H97          -15.3836   -20.6211    -0.5513 H       
  98 H98          -16.5774   -23.0294    -0.3563 H       
  99 H99          -16.1462   -21.8799     1.4849 H       
 100 H100         -14.4652   -21.8835     2.0701 H       
 101 H101         -17.4254   -19.8207     1.3926 H       
 102 H102         -14.9171   -24.7087    -2.0742 H       
 103 H103         -15.9216   -25.6536     0.6474 H       
 104 H104         -15.2654   -26.7237    -0.6146 H       
 105 H105         -16.4253   -26.9029    -2.4907 H       
 106 H106         -13.1289   -25.4658    -0.5703 H       
 107 H107         -13.7851   -24.3958     0.6917 H       
 108 H108         -11.5690   -25.6145     1.6222 H       
 109 H109         -11.9194   -26.9532     2.5751 H       
 110 H110         -19.2660   -26.2488    -2.3163 H       
 111 H111         -17.7988   -26.4371    -4.9848 H       
 112 H112         -19.5694   -26.4478    -4.8024 H       
 113 H113         -20.4671   -28.1814    -3.7602 H       
 114 H114         -19.3248   -30.6235    -2.6381 H       
 115 H115         -21.8647   -30.0899    -4.2422 H       
 116 H116         -21.4161   -31.6701    -3.5565 H       
 117 H117         -18.1737   -30.4397    -4.8267 H       
 118 H118         -19.3124   -31.8078    -4.8166 H       
 119 H119         -19.7488   -30.2928    -5.6428 H       
 120 H120         -21.3749   -30.6733    -1.2865 H       
 121 H121         -21.8235   -29.0931    -1.9721 H       
 122 H122         -23.9321   -30.0681    -2.8394 H       
 123 H123         -23.4834   -31.6483    -2.1537 H       
 124 H124         -17.7478   -17.5633     2.3193 H       
 125 H125         -13.7117   -17.5720     3.7247 H       
 126 H126         -13.3993   -19.8318     2.8004 H       
 127 H127         -16.2437   -16.1691     4.5063 H       
 128 H128         -23.4422   -30.6515     0.1164 H       
 129 H129         -23.8909   -29.0713    -0.5693 H       
 130 H130         -25.5167   -31.5185    -0.8062 H       
 131 H131         -25.8135   -30.2657     0.2465 H       
 132 H132           1.9269     1.7038    -0.8972 H       
 133 H133           1.4019     3.1452     0.0056 H       
 134 H134           1.9439     1.6943     0.8826 H       
 135 H135         -19.4691   -24.2293    -3.6993 H       
 136 H136         -17.6986   -24.2186    -3.8818 H       
 137 H137         -17.9516   -24.3470    -6.3451 H       
 138 H138         -19.7222   -24.3577    -6.1627 H       
 139 H139         -19.6219   -22.1391    -5.0596 H       
 140 H140         -17.8514   -22.1284    -5.2421 H       
 141 H141         -19.7612   -22.3013    -7.4805 H       
 142 H142         -18.9370   -20.9309    -7.0242 H       
 143 C143          37.2883    21.8802    12.3023 C.3     
 144 C144          36.0646    21.0092    12.4243 C.2     
 145 N145          35.1107    21.3100    13.3277 N.am    
 146 C146          33.9210    20.4634    13.4463 C.3     
 147 C147          32.7834    21.2722    14.0142 C.2     
 148 N148          31.5809    20.6970    14.2129 N.am    
 149 C149          30.4749    21.4833    14.7649 C.3     
 150 C150          29.4966    20.5632    15.4487 C.2     
 151 N151          28.3925    21.0682    16.0337 N.am    
 152 O152          29.7029    19.3683    15.4725 O.2     
 153 C153          27.4415    20.1738    16.6984 C.3     
 154 C154          26.6815    20.9405    17.7499 C.2     
 155 C155          26.4604    19.6145    15.6662 C.3     
 156 N156          25.7461    20.3176    18.4939 N.am    
 157 O157          26.9116    22.1181    17.9267 O.2     
 158 C158          25.0073    21.0629    19.5161 C.3     
 159 C159          24.5153    20.1102    20.5750 C.2     
 160 N160          23.8057    20.5750    21.6224 N.am    
 161 O161          24.7579    18.9254    20.4848 O.2     
 162 C162          23.2334    19.6384    22.5928 C.3     
 163 C163          21.8725    19.1952    22.1208 C.2     
 164 O164          21.4248    19.6198    21.0767 O.2     
 165 N165          21.1530    18.3270    22.8590 N.am    
 166 C166          19.8301    17.8961    22.4002 C.3     
 167 C167          19.9836    16.7202    21.4335 C.3     
 168 C168          19.0025    17.4680    23.5846 C.2     
 169 O169          19.4715    17.5179    24.7020 O.2     
 170 N170          17.7411    17.0297    23.4022 N.am    
 171 C171          16.9365    16.6136    24.5536 C.3     
 172 C172          16.2645    17.8392    25.1759 C.3     
 173 C173          15.8812    15.6370    24.1023 C.2     
 174 O174          15.8084    15.3198    22.9340 O.2     
 175 N175          15.0184    15.1160    24.9971 N.am    
 176 C176          13.9925    14.1666    24.5584 C.3     
 177 C177          14.5834    12.7557    24.5269 C.3     
 178 C178          12.8309    14.2034    25.5178 C.2     
 179 O179          12.8574    14.9492    26.4738 O.2     
 180 N180          11.7626    13.4075    25.3134 N.am    
 181 C181          15.6808    12.6860    23.4630 C.3     
 182 C182          16.2717    11.2751    23.4314 C.3     
 183 N183          17.3225    11.2084    22.4128 N.pl3   
 184 C184          18.0014    10.0317    22.2014 C.2     
 185 C185          23.8132    21.7680    18.8698 C.3     
 186 C186          24.3017    22.6409    17.7121 C.3     
 187 O187          22.8940    20.7919    18.3754 O.3     
 188 C188          23.1019    20.3290    23.9517 C.3     
 189 C189          24.4732    20.6625    24.4804 C.2     
 190 O190          24.6092    21.1934    25.7058 O.3     
 191 O191          25.4501    20.4520    23.8014 O.2     
 192 C192          20.7164    17.1874    20.1743 C.3     
 193 C193          20.8699    16.0115    19.2076 C.3     
 194 C194          21.6027    16.4787    17.9484 C.3     
 195 N195          21.7501    15.3496    17.0203 N.3     
 196 C196          17.3181    18.7589    25.7373 C.ar    
 197 C197          17.8643    19.7494    24.9421 C.ar    
 198 C198          17.7327    18.6145    27.0484 C.ar    
 199 C199          18.6980    19.4566    27.5655 C.ar    
 200 C200          19.2515    20.4478    26.7681 C.ar    
 201 C201          18.8303    20.5938    25.4543 C.ar    
 202 N202          18.9875     9.9691    21.2455 N.pl3   
 203 N203          17.7101     8.9755    22.9074 N.2     
 204 C204          29.7665    22.2313    13.6338 C.3     
 205 O205          29.1561    21.2895    12.7491 O.3     
 206 O206          32.9499    22.4409    14.2925 O.2     
 207 C207          34.2235    19.2861    14.3756 C.3     
 208 C208          35.2923    18.3954    13.7391 C.3     
 209 C209          35.5947    17.2182    14.6683 C.3     
 210 N210          36.6182    16.3654    14.0588 N.pl3   
 211 C211          37.0540    15.2385    14.7150 C.2     
 212 N212          38.0144    14.4382    14.1430 N.pl3   
 213 N213          36.5565    14.9290    15.8793 N.2     
 214 O214          35.9380    20.0377    11.7095 O.2     
 215 C215          10.6334    13.4432    26.2460 C.3     
 216 C216          10.9128    12.5259    27.4085 C.2     
 217 C217           9.3635    12.9833    25.5271 C.3     
 218 C218           9.0093    13.9851    24.4263 C.3     
 219 N219          10.0070    12.3971    28.3981 N.am    
 220 O220          11.9528    11.9036    27.4536 O.2     
 221 C221           7.8263    13.4537    23.6145 C.3     
 222 O222          20.2010    21.2778    27.2746 O.3     
 223 N223          38.1661    21.3456    11.2583 N.am    
 224 C224          36.8664    23.3040    11.9342 C.3     
 225 C225          39.4878    21.6072    11.2900 C.2     
 226 C226          38.0950    24.2157    11.9324 C.3     
 227 C227          37.6952    25.6095    11.4440 C.3     
 228 C228          38.6587    24.3147    13.3513 C.3     
 229 C229           8.6323    15.3261    25.0592 C.3     
 230 O230          39.9506    22.2852    12.1828 O.2     
 231 C231          40.3907    21.0573    10.2160 C.3     
 232 H232          37.8210    21.8935    13.2532 H       
 233 H233          35.2119    22.0871    13.8994 H       
 234 H234          33.6433    20.0870    12.4618 H       
 235 H235          31.4476    19.7623    13.9903 H       
 236 H236          30.8643    22.2010    15.4870 H       
 237 H237          28.2275    22.0239    16.0147 H       
 238 H238          27.9826    19.3522    17.1678 H       
 239 H239          25.9193    20.4361    15.1968 H       
 240 H240          27.0101    19.0600    14.9057 H       
 241 H241          25.7528    18.9491    16.1607 H       
 242 H242          25.5621    19.3757    18.3525 H       
 243 H243          25.6643    21.8042    19.9711 H       
 244 H244          23.6739    21.5295    21.7337 H       
 245 H245          23.8855    18.7702    22.6880 H       
 246 H246          21.5111    17.9874    23.6941 H       
 247 H247          19.3351    18.7229    21.8909 H       
 248 H248          20.5565    15.9272    21.9141 H       
 249 H249          18.9980    16.3426    21.1613 H       
 250 H250          17.3660    16.9898    22.5085 H       
 251 H251          17.5800    16.1372    25.2933 H       
 252 H252          15.6915    18.3660    24.4129 H       
 253 H253          15.5968    17.5202    25.9762 H       
 254 H254          15.0767    15.3697    25.9315 H       
 255 H255          13.6484    14.4388    23.5606 H       
 256 H256          15.0074    12.5175    25.5023 H       
 257 H257          13.7986    12.0384    24.2868 H       
 258 H258          11.7415    12.8110    24.5487 H       
 259 H259          15.2568    12.9243    22.4875 H       
 260 H260          16.4656    13.4034    23.7030 H       
 261 H261          16.6957    11.0369    24.4069 H       
 262 H262          15.4869    10.5578    23.1914 H       
 263 H263          17.5393    11.9945    21.8874 H       
 264 H264          23.3155    22.3931    19.6112 H       
 265 H265          23.4510    23.1432    17.2517 H       
 266 H266          25.0028    23.3855    18.0892 H       
 267 H267          24.7994    22.0159    16.9707 H       
 268 H268          22.1106    21.1684    17.9516 H       
 269 H269          22.5232    21.2458    23.8389 H       
 270 H270          22.5952    19.6631    24.6502 H       
 271 H271          25.5085    21.3905    26.0015 H       
 272 H272          20.1435    17.9804    19.6937 H       
 273 H273          21.7020    17.5650    20.4465 H       
 274 H274          21.4428    15.2184    19.6882 H       
 275 H275          19.8843    15.6339    18.9354 H       
 276 H276          21.0298    17.2717    17.4678 H       
 277 H277          22.5883    16.8563    18.2206 H       
 278 H278          20.8536    14.9407    16.8031 H       
 279 H279          22.2315    15.6328    16.1799 H       
 280 H280          17.5358    19.8628    23.9195 H       
 281 H281          17.3013    17.8429    27.6688 H       
 282 H282          19.0213    19.3437    28.5897 H       
 283 H283          19.2596    21.3646    24.8315 H       
 284 H284          19.2042    10.7552    20.7201 H       
 285 H285          19.4664     9.1389    21.0964 H       
 286 H286          18.1891     8.1452    22.7583 H       
 287 H287          29.0013    22.8844    14.0534 H       
 288 H288          30.4925    22.8293    13.0831 H       
 289 H289          28.6876    21.6942    12.0062 H       
 290 H290          34.5864    19.6622    15.3321 H       
 291 H291          33.3145    18.7059    14.5345 H       
 292 H292          34.9294    18.0194    12.7825 H       
 293 H293          36.2013    18.9757    13.5801 H       
 294 H294          35.9576    17.5943    15.6249 H       
 295 H295          34.6858    16.6379    14.8273 H       
 296 H296          36.9884    16.5957    13.1924 H       
 297 H297          38.3846    14.6685    13.2766 H       
 298 H298          38.3219    13.6432    14.6060 H       
 299 H299          36.8640    14.1340    16.3423 H       
 300 H300          10.4958    14.4610    26.6111 H       
 301 H301           9.5319    12.0015    25.0845 H       
 302 H302           8.5428    12.9236    26.2419 H       
 303 H303           9.8684    14.1220    23.7695 H       
 304 H304           9.1752    12.8949    28.3621 H       
 305 H305          10.1868    11.8067    29.1464 H       
 306 H306           7.6289    14.1245    22.7784 H       
 307 H307           8.0633    12.4599    23.2349 H       
 308 H308           6.9439    13.3983    24.2520 H       
 309 H309          21.1058    20.9564    27.1603 H       
 310 H310          37.7960    20.8034    10.5442 H       
 311 H311          36.4127    23.3037    10.9431 H       
 312 H312          36.1440    23.6692    12.6643 H       
 313 H313          38.8537    23.8018    11.2681 H       
 314 H314          36.9366    26.0234    12.1083 H       
 315 H315          38.5705    26.2590    11.4427 H       
 316 H316          37.2936    25.5389    10.4331 H       
 317 H317          37.9001    24.7287    14.0155 H       
 318 H318          38.9436    23.3218    13.6992 H       
 319 H319          39.5341    24.9643    13.3500 H       
 320 H320           9.4752    15.7047    25.6375 H       
 321 H321           8.3800    16.0398    24.2749 H       
 322 H322           7.7733    15.1892    25.7160 H       
 323 H323          39.8002    20.4779     9.5063 H       
 324 H324          40.8792    21.8808     9.6952 H       
 325 H325          41.1459    20.4154    10.6697 H       
@<TRIPOS>BOND
   1    1    2 1
   2    1   59 1
   3    1   65 1
   4    1   66 1
   5    2    3 1
   6    2   67 1
   7    2   68 1
   8    3    4 1
   9    3   69 1
  10    3   70 1
  11    4    5 1
  12    4   71 1
  13    4   72 1
  14    5    6 1
  15    5   73 1
  16    5   74 1
  17    6    7 1
  18    6   75 1
  19    6   76 1
  20    7    8 1
  21    7   77 1
  22    7   78 1
  23    8    9 1
  24    8   79 1
  25    8   80 1
  26    9   10 1
  27    9   81 1
  28    9   82 1
  29   10   11 1
  30   10   83 1
  31   10   84 1
  32   11   12 1
  33   11   85 1
  34   11   86 1
  35   12   13 1
  36   13   14 1
  37   13   87 1
  38   13   88 1
  39   14   15 1
  40   14   89 1
  41   14   90 1
  42   15   16 am
  43   15   17 2
  44   16   18 1
  45   16   60 1
  46   18   19 1
  47   18   91 1
  48   18   92 1
  49   19   20 am
  50   19   21 2
  51   20   22 1
  52   20   93 1
  53   22   23 1
  54   22   94 1
  55   22   95 1
  56   23   24 am
  57   23   25 2
  58   24   26 1
  59   24   96 1
  60   26   27 1
  61   26   30 1
  62   26   97 1
  63   27   28 2
  64   27   29 am
  65   29   33 1
  66   29   98 1
  67   30   31 1
  68   30   99 1
  69   30  100 1
  70   31   32 ar
  71   31   54 ar
  72   32   51 ar
  73   32  101 1
  74   33   34 1
  75   33   35 1
  76   33  102 1
  77   34   38 1
  78   34  103 1
  79   34  104 1
  80   35   36 2
  81   35   37 am
  82   37   41 1
  83   37  105 1
  84   38   39 1
  85   38  106 1
  86   38  107 1
  87   39   40 am
  88   39   56 2
  89   40  108 1
  90   40  109 1
  91   41   42 1
  92   41   43 1
  93   41  110 1
  94   42   61 1
  95   42  111 1
  96   42  112 1
  97   43   44 2
  98   43   45 am
  99   45   46 1
 100   45  113 1
 101   46   47 1
 102   46   48 1
 103   46  114 1
 104   47   49 1
 105   47  115 1
 106   47  116 1
 107   48  117 1
 108   48  118 1
 109   48  119 1
 110   49   50 1
 111   49  120 1
 112   49  121 1
 113   50   57 1
 114   50  122 1
 115   50  123 1
 116   51   52 ar
 117   51  124 1
 118   52   53 ar
 119   52   55 1
 120   53   54 ar
 121   53  125 1
 122   54  126 1
 123   55  127 1
 124   57   58 1
 125   57  128 1
 126   57  129 1
 127   58  130 1
 128   58  131 1
 129   59  132 1
 130   59  133 1
 131   59  134 1
 132   61   62 1
 133   61  135 1
 134   61  136 1
 135   62   63 1
 136   62  137 1
 137   62  138 1
 138   63   64 1
 139   63  139 1
 140   63  140 1
 141   64  141 1
 142   64  142 1
 143  143  144 1
 144  143  223 1
 145  143  224 1
 146  143  232 1
 147  144  145 am
 148  144  214 2
 149  145  146 1
 150  145  233 1
 151  146  147 1
 152  146  207 1
 153  146  234 1
 154  147  148 am
 155  147  206 2
 156  148  149 1
 157  148  235 1
 158  149  150 1
 159  149  204 1
 160  149  236 1
 161  150  151 am
 162  150  152 2
 163  151  153 1
 164  151  237 1
 165  153  154 1
 166  153  155 1
 167  153  238 1
 168  154  156 am
 169  154  157 2
 170  155  239 1
 171  155  240 1
 172  155  241 1
 173  156  158 1
 174  156  242 1
 175  158  159 1
 176  158  185 1
 177  158  243 1
 178  159  160 am
 179  159  161 2
 180  160  162 1
 181  160  244 1
 182  162  163 1
 183  162  188 1
 184  162  245 1
 185  163  164 2
 186  163  165 am
 187  165  166 1
 188  165  246 1
 189  166  167 1
 190  166  168 1
 191  166  247 1
 192  167  192 1
 193  167  248 1
 194  167  249 1
 195  168  169 2
 196  168  170 am
 197  170  171 1
 198  170  250 1
 199  171  172 1
 200  171  173 1
 201  171  251 1
 202  172  196 1
 203  172  252 1
 204  172  253 1
 205  173  174 2
 206  173  175 am
 207  175  176 1
 208  175  254 1
 209  176  177 1
 210  176  178 1
 211  176  255 1
 212  177  181 1
 213  177  256 1
 214  177  257 1
 215  178  179 2
 216  178  180 am
 217  180  215 1
 218  180  258 1
 219  181  182 1
 220  181  259 1
 221  181  260 1
 222  182  183 1
 223  182  261 1
 224  182  262 1
 225  183  184 1
 226  183  263 1
 227  184  202 1
 228  184  203 2
 229  185  186 1
 230  185  187 1
 231  185  264 1
 232  186  265 1
 233  186  266 1
 234  186  267 1
 235  187  268 1
 236  188  189 1
 237  188  269 1
 238  188  270 1
 239  189  190 1
 240  189  191 2
 241  190  271 1
 242  192  193 1
 243  192  272 1
 244  192  273 1
 245  193  194 1
 246  193  274 1
 247  193  275 1
 248  194  195 1
 249  194  276 1
 250  194  277 1
 251  195  278 1
 252  195  279 1
 253  196  197 ar
 254  196  198 ar
 255  197  201 ar
 256  197  280 1
 257  198  199 ar
 258  198  281 1
 259  199  200 ar
 260  199  282 1
 261  200  201 ar
 262  200  222 1
 263  201  283 1
 264  202  284 1
 265  202  285 1
 266  203  286 1
 267  204  205 1
 268  204  287 1
 269  204  288 1
 270  205  289 1
 271  207  208 1
 272  207  290 1
 273  207  291 1
 274  208  209 1
 275  208  292 1
 276  208  293 1
 277  209  210 1
 278  209  294 1
 279  209  295 1
 280  210  211 1
 281  210  296 1
 282  211  212 1
 283  211  213 2
 284  212  297 1
 285  212  298 1
 286  213  299 1
 287  215  216 1
 288  215  217 1
 289  215  300 1
 290  216  219 am
 291  216  220 2
 292  217  218 1
 293  217  301 1
 294  217  302 1
 295  218  221 1
 296  218  229 1
 297  218  303 1
 298  219  304 1
 299  219  305 1
 300  221  306 1
 301  221  307 1
 302  221  308 1
 303  222  309 1
 304  223  225 am
 305  223  310 1
 306  224  226 1
 307  224  311 1
 308  224  312 1
 309  225  230 2
 310  225  231 1
 311  226  227 1
 312  226  228 1
 313  226  313 1
 314  227  314 1
 315  227  315 1
 316  227  316 1
 317  228  317 1
 318  228  318 1
 319  228  319 1
 320  229  320 1
 321  229  321 1
 322  229  322 1
 323  231  323 1
 324  231  324 1
 325  231  325 1

#	End of record

