#	Name: ASD01230214
#	Creating user name:	WinNT
#	Creation time:	15. 06. 2019 19:12

#	Modifying user name:	WinNT
#	Modification time:	15. 06. 2019 19:12

#	Program:	/corina/corina34_cracker 3.40 0067  02.08.2006

@<TRIPOS>MOLECULE
ASD01230214
  36   38    0    0    0
SMALL
NO_CHARGES


@<TRIPOS>ATOM
   1 C1             0.1249     1.1824    -0.6308 C.ar    
   2 C2             0.0341    -0.1987    -0.8551 C.ar    
   3 C3             1.1633    -0.8839    -1.3027 C.ar    
   4 C4             2.3325    -0.1657    -1.5073 C.ar    
   5 C5             2.3450     1.1949    -1.2642 C.ar    
   6 N6             1.2634     1.8221    -0.8407 N.ar    
   7 N7            -0.9897     1.8844    -0.1905 N.pl3   
   8 C8            -1.2408    -0.9186    -0.6201 C.ar    
   9 C9            -1.7569    -1.7638    -1.6014 C.ar    
  10 C10           -2.9426    -2.4323    -1.3796 C.ar    
  11 C11           -3.6221    -2.2642    -0.1806 C.ar    
  12 C12           -3.1110    -1.4228     0.7985 C.ar    
  13 C13           -1.9228    -0.7560     0.5849 C.ar    
  14 O14           -4.7902    -2.9243     0.0350 O.3     
  15 C15           -4.7288    -4.2454     0.3373 C.ar    
  16 C16           -5.9026    -4.9789     0.4581 C.ar    
  17 C17           -5.8261    -6.3256     0.7668 C.ar    
  18 C18           -4.5720    -6.8940     0.9446 C.ar    
  19 C19           -3.4474    -6.1048     0.8092 C.ar    
  20 N20           -3.5519    -4.8242     0.5089 N.ar    
  21 C21           -7.2411    -4.3166     0.2563 C.3     
  22 F22           -8.2593    -5.2600     0.4307 F       
  23 F23           -7.3964    -3.2851     1.1886 F       
  24 F24           -7.3103    -3.7897    -1.0379 F       
  25 Cl25           3.7675    -0.9690    -2.0633 Cl      
  26 H26            1.1286    -1.9478    -1.4853 H       
  27 H27            3.2551     1.7543    -1.4230 H       
  28 H28           -1.8273     1.4192    -0.0393 H       
  29 H29           -0.9305     2.8399    -0.0342 H       
  30 H30           -1.2290    -1.8946    -2.5344 H       
  31 H31           -3.3431    -3.0869    -2.1395 H       
  32 H32           -3.6422    -1.2936     1.7298 H       
  33 H33           -1.5233    -0.1054     1.3488 H       
  34 H34           -6.7216    -6.9209     0.8674 H       
  35 H35           -4.4772    -7.9423     1.1866 H       
  36 H36           -2.4695    -6.5421     0.9468 H       
@<TRIPOS>BOND
   1    1    2 ar
   2    1    6 ar
   3    1    7 1
   4    2    3 ar
   5    2    8 1
   6    3    4 ar
   7    3   26 1
   8    4    5 ar
   9    4   25 1
  10    5    6 ar
  11    5   27 1
  12    7   28 1
  13    7   29 1
  14    8    9 ar
  15    8   13 ar
  16    9   10 ar
  17    9   30 1
  18   10   11 ar
  19   10   31 1
  20   11   12 ar
  21   11   14 1
  22   12   13 ar
  23   12   32 1
  24   13   33 1
  25   14   15 1
  26   15   16 ar
  27   15   20 ar
  28   16   17 ar
  29   16   21 1
  30   17   18 ar
  31   17   34 1
  32   18   19 ar
  33   18   35 1
  34   19   20 ar
  35   19   36 1
  36   21   22 1
  37   21   23 1
  38   21   24 1

#	End of record

