#	Name: ASD02610017
#	Creating user name:	WinNT
#	Creation time:	15. 06. 2019 20:25

#	Modifying user name:	WinNT
#	Modification time:	15. 06. 2019 20:25

#	Program:	/corina/corina34_cracker 3.40 0067  02.08.2006

@<TRIPOS>MOLECULE
ASD02610017
  99  101    0    0    0
SMALL
NO_CHARGES


@<TRIPOS>ATOM
   1 C1             0.9102     0.1764    -1.0352 C.3     
   2 C2             1.4343    -1.2760    -1.0308 C.3     
   3 C3             2.9165    -1.1888    -0.7672 C.2     
   4 C4             3.3067     0.0383    -0.5835 C.2     
   5 C5             2.1297     0.9773    -0.6064 C.3     
   6 C6             4.7268     0.5374    -0.4832 C.3     
   7 C7             4.7830     1.7305     0.4451 C.3     
   8 C8             4.4949     3.0493    -0.1968 C.3     
   9 C9             3.0151     3.3201    -0.2965 C.3     
  10 C10            2.3356     2.3037    -1.2155 C.3     
  11 O11            1.1926    -1.8976    -2.3206 O.3     
  12 C12            3.8362    -2.3818    -0.7216 C.3     
  13 O13           -0.1715     0.3355    -0.0797 O.3     
  14 H14            1.9461     1.1936     0.4460 H       
  15 O15            1.0439     2.8337    -1.6140 O.3     
  16 C16            3.1938     2.1339    -2.4708 C.3     
  17 O17            5.0673     3.0595    -1.5312 O.3     
  18 C18            5.4670     4.2465    -2.0138 C.2     
  19 C19            6.0708     4.3351    -3.3917 C.3     
  20 O20            5.3427     5.2440    -1.3434 O.2     
  21 O21            5.6445    -0.4308     0.0901 O.3     
  22 C22            6.6867     0.2687     0.6020 C.2     
  23 C23            6.1606     1.6042     1.1084 C.3     
  24 O24            3.7830     1.5251     1.4776 O.3     
  25 C25            6.4374     5.7891    -3.6954 C.3     
  26 C26            7.0504     5.8790    -5.0943 C.3     
  27 C27           -1.4196     0.1433    -0.5345 C.2     
  28 C28           -2.5931     0.2911     0.3994 C.3     
  29 C29           -3.8905     0.0209    -0.3651 C.3     
  30 C30           -5.0819     0.1710     0.5831 C.3     
  31 C31           -6.3793    -0.0993    -0.1814 C.3     
  32 C32           -7.5707     0.0508     0.7668 C.3     
  33 O33           -1.6023    -0.1483    -1.6927 O.2     
  34 O34            7.8352    -0.1037     0.6483 O.2     
  35 O35            7.0306     2.6877     0.6871 O.3     
  36 C36           -8.8682    -0.2194     0.0023 C.3     
  37 C37          -10.0595    -0.0693     0.9505 C.3     
  38 C38            6.0236     1.5848     2.6321 C.3     
  39 C39            0.1700     3.1105    -0.6335 C.2     
  40 C40           -1.2271     3.5610    -0.9743 C.3     
  41 O41            0.5035     2.9984     0.5224 O.2     
  42 C42            0.9959    -3.2254    -2.3298 C.2     
  43 C43            0.7390    -3.9400    -3.6315 C.3     
  44 O44            1.0247    -3.8476    -1.2945 O.2     
  45 C45            3.6212     2.5109     2.3741 C.2     
  46 C46            2.6597     2.3360     3.5212 C.3     
  47 C47            8.2740     2.7026     1.1927 C.2     
  48 C48            9.2336     3.7966     0.8011 C.3     
  49 O49            4.2466     3.5386     2.2614 O.2     
  50 O50            8.6238     1.8388     1.9617 O.2     
  51 H51            0.5891     0.4679    -2.0352 H       
  52 H52            0.9465    -1.8479    -0.2415 H       
  53 H53            5.0836     0.8262    -1.4718 H       
  54 H54            4.9606     3.8392     0.3925 H       
  55 H55            2.5715     3.2575     0.6972 H       
  56 H56            2.8603     4.3229    -0.6947 H       
  57 H57            3.2627    -3.2900    -0.9068 H       
  58 H58            4.6064    -2.2762    -1.4858 H       
  59 H59            4.3049    -2.4419     0.2606 H       
  60 H60            2.6167     1.6184    -3.2384 H       
  61 H61            3.4954     3.1141    -2.8400 H       
  62 H62            4.0805     1.5483    -2.2282 H       
  63 H63            6.9678     3.7174    -3.4357 H       
  64 H64            5.3493     3.9809    -4.1280 H       
  65 H65            5.5404     6.4068    -3.6514 H       
  66 H66            7.1589     6.1433    -2.9591 H       
  67 H67            7.9474     5.2613    -5.1383 H       
  68 H68            6.3289     5.5248    -5.8306 H       
  69 H69            7.3116     6.9149    -5.3107 H       
  70 H70           -2.4982    -0.4225     1.2178 H       
  71 H71           -2.6123     1.3042     0.8011 H       
  72 H72           -3.9854     0.7345    -1.1835 H       
  73 H73           -3.8713    -0.9922    -0.7668 H       
  74 H74           -4.9870    -0.5426     1.4015 H       
  75 H75           -5.1011     1.1841     0.9848 H       
  76 H76           -6.4742     0.6144    -0.9998 H       
  77 H77           -6.3601    -1.1124    -0.5831 H       
  78 H78           -7.4758    -0.6628     1.5852 H       
  79 H79           -7.5899     1.0639     1.1685 H       
  80 H80           -8.9630     0.4942    -0.8161 H       
  81 H81           -8.8489    -1.2325    -0.3994 H       
  82 H82          -10.9839    -0.2618     0.4059 H       
  83 H83           -9.9647    -0.7829     1.7689 H       
  84 H84          -10.0788     0.9438     1.3522 H       
  85 H85            5.2488     0.8735     2.9182 H       
  86 H86            6.9725     1.2874     3.0785 H       
  87 H87            5.7519     2.5796     2.9852 H       
  88 H88           -1.3414     3.6023    -2.0575 H       
  89 H89           -1.9476     2.8560    -0.5596 H       
  90 H90           -1.4029     4.5506    -0.5524 H       
  91 H91            1.5882    -3.7950    -4.2993 H       
  92 H92            0.6043    -5.0048    -3.4410 H       
  93 H93           -0.1612    -3.5372    -4.0957 H       
  94 H94            2.1923     1.3534     3.4569 H       
  95 H95            3.1999     2.4203     4.4642 H       
  96 H96            1.8915     3.1077     3.4723 H       
  97 H97            8.7435     4.4780     0.1056 H       
  98 H98            9.5417     4.3454     1.6910 H       
  99 H99           10.1095     3.3578     0.3234 H       
@<TRIPOS>BOND
   1    1    2 1
   2    1    5 1
   3    1   13 1
   4    1   51 1
   5    2    3 1
   6    2   11 1
   7    2   52 1
   8    3    4 2
   9    3   12 1
  10    4    5 1
  11    4    6 1
  12    5   10 1
  13    5   14 1
  14    6    7 1
  15    6   21 1
  16    6   53 1
  17    7   23 1
  18    7   24 1
  19    7    8 1
  20    8    9 1
  21    8   17 1
  22    8   54 1
  23    9   10 1
  24    9   55 1
  25    9   56 1
  26   10   15 1
  27   10   16 1
  28   11   42 1
  29   12   57 1
  30   12   58 1
  31   12   59 1
  32   13   27 1
  33   15   39 1
  34   16   60 1
  35   16   61 1
  36   16   62 1
  37   17   18 1
  38   18   19 1
  39   18   20 2
  40   19   25 1
  41   19   63 1
  42   19   64 1
  43   21   22 1
  44   22   23 1
  45   22   34 2
  46   23   35 1
  47   23   38 1
  48   24   45 1
  49   25   26 1
  50   25   65 1
  51   25   66 1
  52   26   67 1
  53   26   68 1
  54   26   69 1
  55   27   28 1
  56   27   33 2
  57   28   29 1
  58   28   70 1
  59   28   71 1
  60   29   30 1
  61   29   72 1
  62   29   73 1
  63   30   31 1
  64   30   74 1
  65   30   75 1
  66   31   32 1
  67   31   76 1
  68   31   77 1
  69   32   36 1
  70   32   78 1
  71   32   79 1
  72   35   47 1
  73   36   37 1
  74   36   80 1
  75   36   81 1
  76   37   82 1
  77   37   83 1
  78   37   84 1
  79   38   85 1
  80   38   86 1
  81   38   87 1
  82   39   40 1
  83   39   41 2
  84   40   88 1
  85   40   89 1
  86   40   90 1
  87   42   43 1
  88   42   44 2
  89   43   91 1
  90   43   92 1
  91   43   93 1
  92   45   46 1
  93   45   49 2
  94   46   94 1
  95   46   95 1
  96   46   96 1
  97   47   48 1
  98   47   50 2
  99   48   97 1
 100   48   98 1
 101   48   99 1

#	End of record

