#	Name: ASD01411597
#	Creating user name:	WinNT
#	Creation time:	15. 06. 2019 19:19

#	Modifying user name:	WinNT
#	Modification time:	15. 06. 2019 19:19

#	Program:	/corina/corina34_cracker 3.40 0067  02.08.2006

@<TRIPOS>MOLECULE
ASD01411597
  29   30    0    0    0
SMALL
NO_CHARGES


@<TRIPOS>ATOM
   1 C1            -0.0167     1.3823     0.0096 C.ar    
   2 C2             0.0021    -0.0041     0.0020 C.ar    
   3 C3             1.2456    -0.6408    -0.0133 C.ar    
   4 N4             2.3555     0.0870    -0.0200 N.ar    
   5 N5             2.3283     1.3702    -0.0128 N.ar    
   6 C6             1.1984     2.0515     0.0016 C.ar    
   7 C7             1.2280     3.5582     0.0094 C.3     
   8 C8             1.3250    -2.1221    -0.0215 C.ar    
   9 C9             2.5658    -2.7558    -0.0367 C.ar    
  10 C10            2.6337    -4.1345    -0.0444 C.ar    
  11 C11            1.4731    -4.8866    -0.0369 C.ar    
  12 C12            0.2384    -4.2627    -0.0218 C.ar    
  13 C13            0.1587    -2.8851    -0.0082 C.ar    
  14 Cl14           1.2235     4.1682    -1.6872 Cl      
  15 C15            1.5538    -6.3914    -0.0458 C.3     
  16 F16            1.5918    -6.8642     1.2703 F       
  17 F17            0.4316    -6.9147    -0.6971 F       
  18 F18            2.7127    -6.7923    -0.7190 F       
  19 C19            3.8313    -1.9376    -0.0454 C.3     
  20 F20            4.9390    -2.7920    -0.0604 F       
  21 F21            3.8536    -1.1252    -1.1841 F       
  22 F22            3.8761    -1.1359     1.1003 F       
  23 H23           -0.9502     1.9254     0.0171 H       
  24 H24           -0.9155    -0.5737     0.0081 H       
  25 H25            0.3502     3.9362     0.5337 H       
  26 H26            2.1298     3.9013     0.5165 H       
  27 H27            3.5949    -4.6267    -0.0566 H       
  28 H28           -0.6647    -4.8549    -0.0164 H       
  29 H29           -0.8057    -2.3991     0.0036 H       
@<TRIPOS>BOND
   1    1    2 ar
   2    1    6 ar
   3    1   23 1
   4    2    3 ar
   5    2   24 1
   6    3    4 ar
   7    3    8 1
   8    4    5 ar
   9    5    6 ar
  10    6    7 1
  11    7   14 1
  12    7   25 1
  13    7   26 1
  14    8    9 ar
  15    8   13 ar
  16    9   10 ar
  17    9   19 1
  18   10   11 ar
  19   10   27 1
  20   11   12 ar
  21   11   15 1
  22   12   13 ar
  23   12   28 1
  24   13   29 1
  25   15   16 1
  26   15   17 1
  27   15   18 1
  28   19   20 1
  29   19   21 1
  30   19   22 1

#	End of record

