#	Name: ASD02198538
#	Creating user name:	WinNT
#	Creation time:	15. 06. 2019 20:19

#	Modifying user name:	WinNT
#	Modification time:	15. 06. 2019 20:19

#	Program:	/corina/corina34_cracker 3.40 0067  02.08.2006

@<TRIPOS>MOLECULE
ASD02198538
  44   47    0    0    0
SMALL
NO_CHARGES


@<TRIPOS>ATOM
   1 C1            -0.7597     0.7165    -2.3967 C.2     
   2 C2            -0.3180    -0.4301    -1.8207 C.2     
   3 N3             0.8956    -0.4844    -1.2278 N.pl3   
   4 N4             1.6953     0.5156    -1.1682 N.2     
   5 C5             1.3917     1.6848    -1.6860 C.2     
   6 C6             0.0909     1.8469    -2.3547 C.2     
   7 C7             1.2988    -1.6926    -0.6497 C.ar    
   8 C8             0.8364    -3.5783     0.7580 C.ar    
   9 C9             2.0964    -4.0827     0.4938 C.ar    
  10 C10            2.9612    -3.3924    -0.3362 C.ar    
  11 C11            2.5664    -2.1994    -0.9084 C.ar    
  12 C12            2.3407     2.8178    -1.5982 C.2     
  13 C13            3.5838     2.8052    -0.9779 C.2     
  14 N14            4.1188     4.0484    -1.1334 N.pl3   
  15 N15            3.2047     4.8288    -1.8504 N.2     
  16 C16            2.1541     4.1059    -2.1326 C.2     
  17 C17            4.2070     1.6609    -0.2814 C.ar    
  18 C18            3.5414     1.0359     0.7748 C.ar    
  19 O19           -0.2407     2.9123    -2.8531 O.2     
  20 C20            5.4617     1.1961    -0.6803 C.ar    
  21 C21            6.0378     0.1273    -0.0257 C.ar    
  22 C22            5.3752    -0.4839     1.0241 C.ar    
  23 C23            4.1291    -0.0319     1.4208 C.ar    
  24 C24            0.4351    -2.3855     0.1889 C.ar    
  25 F25            0.2202    -5.6952     1.6371 F       
  26 F26            0.0188    -3.8504     2.9696 F       
  27 C27           -0.1025    -4.3341     1.6625 C.3     
  28 F28           -1.4182    -4.1585     1.2205 F       
  29 C29            5.4237     4.4915    -0.6362 C.3     
  30 H30           -1.7266     0.7636    -2.8755 H       
  31 H31           -0.9440    -1.3100    -1.8358 H       
  32 H32            2.4062    -5.0177     0.9368 H       
  33 H33            3.9448    -3.7890    -0.5402 H       
  34 H34            3.2419    -1.6611    -1.5567 H       
  35 H35            1.2853     4.4423    -2.6789 H       
  36 H36            2.5689     1.3880     1.0857 H       
  37 H37            5.9797     1.6720    -1.4998 H       
  38 H38            7.0081    -0.2335    -0.3334 H       
  39 H39            5.8307    -1.3205     1.5330 H       
  40 H40            3.6175    -0.5132     2.2411 H       
  41 H41           -0.5491    -1.9919     0.3959 H       
  42 H42            6.1843     4.3032    -1.3939 H       
  43 H43            5.3857     5.5586    -0.4169 H       
  44 H44            5.6719     3.9425     0.2722 H       
@<TRIPOS>BOND
   1    1    2 2
   2    1    6 1
   3    1   30 1
   4    2    3 1
   5    2   31 1
   6    3    4 1
   7    3    7 1
   8    4    5 2
   9    5    6 1
  10    5   12 1
  11    6   19 2
  12    7   24 ar
  13    7   11 ar
  14    8    9 ar
  15    8   27 1
  16    8   24 ar
  17    9   10 ar
  18    9   32 1
  19   10   11 ar
  20   10   33 1
  21   11   34 1
  22   12   13 2
  23   12   16 1
  24   13   14 1
  25   13   17 1
  26   14   15 1
  27   14   29 1
  28   15   16 2
  29   16   35 1
  30   17   20 ar
  31   17   18 ar
  32   18   23 ar
  33   18   36 1
  34   20   21 ar
  35   20   37 1
  36   21   22 ar
  37   21   38 1
  38   22   23 ar
  39   22   39 1
  40   23   40 1
  41   24   41 1
  42   25   27 1
  43   26   27 1
  44   27   28 1
  45   29   42 1
  46   29   43 1
  47   29   44 1

#	End of record

