#	Name: ASD02030628
#	Creating user name:	WinNT
#	Creation time:	15. 06. 2019 20:15

#	Modifying user name:	WinNT
#	Modification time:	15. 06. 2019 20:15

#	Program:	/corina/corina34_cracker 3.40 0067  02.08.2006

@<TRIPOS>MOLECULE
ASD02030628
  64   67    0    0    0
SMALL
NO_CHARGES


@<TRIPOS>ATOM
   1 C1             0.1508     1.1552    -0.0899 C.ar    
   2 C2             0.0145    -0.2166    -0.0931 C.ar    
   3 C3             1.1448    -1.0188    -0.1586 C.ar    
   4 C4             2.3982    -0.4346    -0.2144 C.ar    
   5 C5             2.5336     0.9477    -0.2046 C.ar    
   6 C6             1.4088     1.7404    -0.1514 C.ar    
   7 C7             1.4825     3.2468    -0.1713 C.3     
   8 C8             3.9297     1.5118    -0.2387 C.3     
   9 C9             3.9179     2.9647    -0.7111 C.3     
  10 N10            2.8694     3.6765     0.0365 N.am    
  11 C11            0.9869     3.7629    -1.5237 C.3     
  12 O12            1.7321     3.1416    -2.5728 O.3     
  13 C13            1.4144     3.4930    -3.8475 C.ar    
  14 C14            3.1719     4.6835     0.8797 C.2     
  15 O15            4.3340     4.9713     1.0906 O.2     
  16 C16            2.0913     5.4376     1.5474 C.ar    
  17 C17            0.7672     4.2078    -6.4424 C.ar    
  18 C18            0.0874     4.7776    -5.3761 C.ar    
  19 C19            0.4102     4.4207    -4.0813 C.ar    
  20 C20            2.0984     2.9279    -4.9136 C.ar    
  21 C21            1.7757     3.2848    -6.2083 C.ar    
  22 C22            2.2670     5.9078     2.8504 C.ar    
  23 C23            0.8927     5.6877     0.8756 C.ar    
  24 C24           -0.1125     6.3921     1.5026 C.ar    
  25 C25            0.0643     6.8531     2.7982 C.ar    
  26 C26            1.2546     6.6120     3.4690 C.ar    
  27 O27            0.4495     4.5592    -7.7170 O.3     
  28 C28            1.1903     3.9330    -8.7664 C.3     
  29 C29            0.6954     4.4499   -10.1187 C.3     
  30 O30            1.0216    -2.3722    -0.1675 O.3     
  31 C31           -0.2908    -2.9054     0.0203 C.3     
  32 C32           -0.9358    -3.1647    -1.3427 C.3     
  33 C33           -0.2010    -4.2187     0.8001 C.3     
  34 F34           -0.9239     7.5438     3.4077 F       
  35 Cl35           1.4706     7.1976     5.0889 Cl      
  36 H36           -0.7286     1.7804    -0.0436 H       
  37 H37           -0.9670    -0.6646    -0.0444 H       
  38 H38            3.2782    -1.0586    -0.2656 H       
  39 H39            0.8546     3.6511     0.6226 H       
  40 H40            4.3603     1.4635     0.7614 H       
  41 H41            4.5396     0.9183    -0.9198 H       
  42 H42            4.8870     3.4238    -0.5155 H       
  43 H43            3.6995     3.0036    -1.7783 H       
  44 H44           -0.0704     3.5241    -1.6384 H       
  45 H45            1.1227     4.8433    -1.5722 H       
  46 H46           -0.6978     5.4963    -5.5583 H       
  47 H47           -0.1197     4.8637    -3.2510 H       
  48 H48            2.8837     2.2092    -4.7313 H       
  49 H49            2.3050     2.8412    -7.0386 H       
  50 H50            3.1933     5.7204     3.3730 H       
  51 H51            0.7538     5.3299    -0.1339 H       
  52 H52           -1.0396     6.5858     0.9836 H       
  53 H53            2.2489     4.1667    -8.6534 H       
  54 H54            1.0493     2.8533    -8.7164 H       
  55 H55           -0.3632     4.2162   -10.2318 H       
  56 H56            0.8365     5.5296   -10.1687 H       
  57 H57            1.2605     3.9722   -10.9191 H       
  58 H58           -0.8964    -2.1918     0.5789 H       
  59 H59           -1.9369    -3.5714    -1.1995 H       
  60 H60           -0.9998    -2.2291    -1.8983 H       
  61 H61           -0.3302    -3.8783    -1.9014 H       
  62 H62            0.2585    -4.0340     1.7711 H       
  63 H63           -1.2021    -4.6254     0.9433 H       
  64 H64            0.4046    -4.9323     0.2414 H       
@<TRIPOS>BOND
   1    1    2 ar
   2    1    6 ar
   3    1   36 1
   4    2    3 ar
   5    2   37 1
   6    3    4 ar
   7    3   30 1
   8    4    5 ar
   9    4   38 1
  10    5    6 ar
  11    5    8 1
  12    6    7 1
  13    7   10 1
  14    7   11 1
  15    7   39 1
  16    8    9 1
  17    8   40 1
  18    8   41 1
  19    9   10 1
  20    9   42 1
  21    9   43 1
  22   10   14 am
  23   11   12 1
  24   11   44 1
  25   11   45 1
  26   12   13 1
  27   13   20 ar
  28   13   19 ar
  29   14   15 2
  30   14   16 1
  31   16   23 ar
  32   16   22 ar
  33   17   18 ar
  34   17   21 ar
  35   17   27 1
  36   18   19 ar
  37   18   46 1
  38   19   47 1
  39   20   21 ar
  40   20   48 1
  41   21   49 1
  42   22   26 ar
  43   22   50 1
  44   23   24 ar
  45   23   51 1
  46   24   25 ar
  47   24   52 1
  48   25   26 ar
  49   25   34 1
  50   26   35 1
  51   27   28 1
  52   28   29 1
  53   28   53 1
  54   28   54 1
  55   29   55 1
  56   29   56 1
  57   29   57 1
  58   30   31 1
  59   31   32 1
  60   31   33 1
  61   31   58 1
  62   32   59 1
  63   32   60 1
  64   32   61 1
  65   33   62 1
  66   33   63 1
  67   33   64 1

#	End of record

