#	Name: ASD01510100
#	Creating user name:	WinNT
#	Creation time:	15. 06. 2019 19:21

#	Modifying user name:	WinNT
#	Modification time:	15. 06. 2019 19:21

#	Program:	/corina/corina34_cracker 3.40 0067  02.08.2006

@<TRIPOS>MOLECULE
ASD01510100
  32   33    0    0    0
SMALL
NO_CHARGES


@<TRIPOS>ATOM
   1 C1            -0.0173     1.4248     0.0099 C.3     
   2 O2             0.0021    -0.0041     0.0020 O.3     
   3 C3             0.6048    -0.6061    -1.0540 C.ar    
   4 N4             1.1383     0.1340    -2.0123 N.ar    
   5 C5             1.7359    -0.4139    -3.0602 C.ar    
   6 C6             1.8208    -1.7953    -3.1858 C.ar    
   7 C7             1.2724    -2.5990    -2.2000 C.ar    
   8 C8             0.6601    -1.9920    -1.1145 C.ar    
   9 I9            -0.1874    -3.1532     0.4094 I       
  10 N10            2.2832     0.4014    -4.0443 N.3     
  11 C11            2.0860     1.8215    -3.7215 C.3     
  12 C12            2.7701     2.6835    -4.7852 C.3     
  13 N13            2.2098     2.3638    -6.1056 N.3     
  14 C14            2.4070     0.9438    -6.4285 C.3     
  15 C15            1.7229     0.0818    -5.3647 C.3     
  16 C16            2.7881     3.2253    -7.1455 C.3     
  17 H17            1.0053     1.8021     0.0021 H       
  18 H18           -0.5445     1.7859    -0.8732 H       
  19 H19           -0.5275     1.7763     0.9067 H       
  20 H20            2.3083    -2.2370    -4.0423 H       
  21 H21            1.3244    -3.6752    -2.2734 H       
  22 H22            1.0195     2.0454    -3.7026 H       
  23 H23            2.5203     2.0361    -2.7450 H       
  24 H24            2.6005     3.7371    -4.5636 H       
  25 H25            3.8408     2.4793    -4.7854 H       
  26 H26            1.9727     0.7291    -7.4049 H       
  27 H27            3.4735     0.7198    -6.4473 H       
  28 H28            1.8925    -0.9719    -5.5863 H       
  29 H29            0.6522     0.2860    -5.3645 H       
  30 H30            3.8677     3.0793    -7.1793 H       
  31 H31            2.3561     2.9676    -8.1125 H       
  32 H32            2.5695     4.2683    -6.9163 H       
@<TRIPOS>BOND
   1    1    2 1
   2    1   17 1
   3    1   18 1
   4    1   19 1
   5    2    3 1
   6    3    4 ar
   7    3    8 ar
   8    4    5 ar
   9    5    6 ar
  10    5   10 1
  11    6    7 ar
  12    6   20 1
  13    7    8 ar
  14    7   21 1
  15    8    9 1
  16   10   11 1
  17   10   15 1
  18   11   12 1
  19   11   22 1
  20   11   23 1
  21   12   13 1
  22   12   24 1
  23   12   25 1
  24   13   14 1
  25   13   16 1
  26   14   15 1
  27   14   26 1
  28   14   27 1
  29   15   28 1
  30   15   29 1
  31   16   30 1
  32   16   31 1
  33   16   32 1

#	End of record

