#	Name: ASD00170418
#	Creating user name:	WinNT
#	Creation time:	15. 06. 2019 18:32

#	Modifying user name:	WinNT
#	Modification time:	15. 06. 2019 18:32

#	Program:	/corina/corina34_cracker 3.40 0067  02.08.2006

@<TRIPOS>MOLECULE
ASD00170418
  73   77    0    0    0
SMALL
NO_CHARGES


@<TRIPOS>ATOM
   1 C1            -0.6210     0.8412    -0.2959 C.2     
   2 C2            -0.7448    -0.4526     0.1615 C.2     
   3 C3            -2.0670    -0.9945    -0.0432 C.2     
   4 C4            -2.9007    -0.1299    -0.6348 C.2     
   5 S5            -2.0911     1.3925    -0.9583 S.3     
   6 C6            -2.4670    -2.3887     0.3656 C.3     
   7 C7            -4.3122    -0.4170    -0.9651 C.ar    
   8 C8            -5.3120     0.4948    -0.6217 C.ar    
   9 C9            -6.6277     0.2206    -0.9329 C.ar    
  10 C10           -6.9573    -0.9550    -1.5839 C.ar    
  11 C11           -5.9713    -1.8630    -1.9272 C.ar    
  12 C12           -4.6511    -1.5985    -1.6270 C.ar    
  13 N13            0.5337     1.5901    -0.2223 N.pl3   
  14 C14            0.3478    -1.1981     0.7882 C.2     
  15 C15            1.2221    -2.0604    -0.0354 C.ar    
  16 O16            0.5368    -1.1081     1.9877 O.2     
  17 C17            2.3306    -2.6862     0.5383 C.ar    
  18 C18            3.1423    -3.4892    -0.2348 C.ar    
  19 C19            2.8602    -3.6752    -1.5781 C.ar    
  20 C20            1.7619    -3.0570    -2.1529 C.ar    
  21 C21            0.9393    -2.2567    -1.3885 C.ar    
  22 Cl22           3.8874    -4.6866    -2.5453 Cl      
  23 N23           -2.2708    -2.5500     1.8125 N.3     
  24 C24           -3.3768    -1.9426     2.5647 C.3     
  25 C25           -3.2767    -0.4184     2.4769 C.3     
  26 C26           -4.4286     0.2143     3.2603 C.3     
  27 C27           -5.7619    -0.2444     2.6664 C.3     
  28 C28           -5.8620    -1.7686     2.7541 C.3     
  29 C29           -4.7101    -2.4012     1.9707 C.3     
  30 C30           -2.1083    -3.9663     2.1671 C.3     
  31 C31           -0.8358    -4.5122     1.5162 C.3     
  32 C32           -0.6665    -5.9873     1.8855 C.3     
  33 C33           -0.5606    -6.1235     3.4057 C.3     
  34 C34           -1.8331    -5.5776     4.0566 C.3     
  35 C35           -2.0024    -4.1025     3.6873 C.3     
  36 C36           -8.3968    -1.2480    -1.9203 C.3     
  37 H37           -3.5166    -2.5521     0.1209 H       
  38 H38           -1.8525    -3.1141    -0.1675 H       
  39 H39           -5.0561     1.4126    -0.1132 H       
  40 H40           -7.4022     0.9249    -0.6675 H       
  41 H41           -6.2354    -2.7789    -2.4349 H       
  42 H42           -3.8823    -2.3080    -1.8957 H       
  43 H43            1.3114     1.2383     0.2386 H       
  44 H44            0.5688     2.4689    -0.6314 H       
  45 H45            2.5519    -2.5413     1.5854 H       
  46 H46            4.0000    -3.9738     0.2079 H       
  47 H47            1.5471    -3.2054    -3.2008 H       
  48 H48            0.0831    -1.7754    -1.8376 H       
  49 H49           -3.3188    -2.2510     3.6085 H       
  50 H50           -2.3269    -0.0916     2.9001 H       
  51 H51           -3.3347    -0.1100     1.4330 H       
  52 H52           -4.3707    -0.0941     4.3042 H       
  53 H53           -4.3574     1.3002     3.1978 H       
  54 H54           -6.5826     0.2064     3.2245 H       
  55 H55           -5.8199     0.0640     1.6225 H       
  56 H56           -5.8040    -2.0770     3.7980 H       
  57 H57           -6.8118    -2.0953     2.3310 H       
  58 H58           -4.7681    -2.0928     0.9269 H       
  59 H59           -4.7813    -3.4871     2.0333 H       
  60 H60           -2.9697    -4.5312     1.8108 H       
  61 H61           -0.9112    -4.4151     0.4332 H       
  62 H62            0.0257    -3.9473     1.8725 H       
  63 H63           -1.5279    -6.5522     1.5292 H       
  64 H64            0.2401    -6.3762     1.4218 H       
  65 H65           -0.4400    -7.1744     3.6688 H       
  66 H66            0.3009    -5.5586     3.7620 H       
  67 H67           -2.6945    -6.1425     3.7003 H       
  68 H68           -1.7576    -5.6747     5.1396 H       
  69 H69           -1.1409    -3.5376     4.0436 H       
  70 H70           -2.9089    -3.7136     4.1510 H       
  71 H71           -8.6275    -0.8491    -2.9081 H       
  72 H72           -8.5586    -2.3259    -1.9168 H       
  73 H73           -9.0454    -0.7808    -1.1792 H       
@<TRIPOS>BOND
   1    1    2 2
   2    1   13 1
   3    1    5 1
   4    2    3 1
   5    2   14 1
   6    3    4 2
   7    3    6 1
   8    4    5 1
   9    4    7 1
  10    6   23 1
  11    6   37 1
  12    6   38 1
  13    7    8 ar
  14    7   12 ar
  15    8    9 ar
  16    8   39 1
  17    9   10 ar
  18    9   40 1
  19   10   11 ar
  20   10   36 1
  21   11   12 ar
  22   11   41 1
  23   12   42 1
  24   13   43 1
  25   13   44 1
  26   14   15 1
  27   14   16 2
  28   15   17 ar
  29   15   21 ar
  30   17   18 ar
  31   17   45 1
  32   18   19 ar
  33   18   46 1
  34   19   20 ar
  35   19   22 1
  36   20   21 ar
  37   20   47 1
  38   21   48 1
  39   23   24 1
  40   23   30 1
  41   24   25 1
  42   24   29 1
  43   24   49 1
  44   25   26 1
  45   25   50 1
  46   25   51 1
  47   26   27 1
  48   26   52 1
  49   26   53 1
  50   27   28 1
  51   27   54 1
  52   27   55 1
  53   28   29 1
  54   28   56 1
  55   28   57 1
  56   29   58 1
  57   29   59 1
  58   30   31 1
  59   30   35 1
  60   30   60 1
  61   31   32 1
  62   31   61 1
  63   31   62 1
  64   32   33 1
  65   32   63 1
  66   32   64 1
  67   33   34 1
  68   33   65 1
  69   33   66 1
  70   34   35 1
  71   34   67 1
  72   34   68 1
  73   35   69 1
  74   35   70 1
  75   36   71 1
  76   36   72 1
  77   36   73 1

#	End of record

