#	Name: ASD01814345
#	Creating user name:	WinNT
#	Creation time:	15. 06. 2019 19:32

#	Modifying user name:	WinNT
#	Modification time:	15. 06. 2019 19:32

#	Program:	/corina/corina34_cracker 3.40 0067  02.08.2006

@<TRIPOS>MOLECULE
ASD01814345
  56   60    0    0    0
SMALL
NO_CHARGES


@<TRIPOS>ATOM
   1 C1            -0.0168     1.3869     0.0097 C.ar    
   2 C2             0.0021    -0.0041     0.0020 C.ar    
   3 C3             1.1801    -0.6897    -0.0129 C.ar    
   4 C4             2.3948     0.0129    -0.0207 C.ar    
   5 C5             2.3717     1.4290    -0.0129 C.ar    
   6 C6             1.1455     2.1015     0.0024 C.ar    
   7 C7             3.6293    -0.6694    -0.0365 C.ar    
   8 C8             4.8031     0.0063    -0.0446 C.ar    
   9 C9             4.8359     1.4095    -0.0374 C.ar    
  10 C10            3.6406     2.1511    -0.0211 C.ar    
  11 C11            6.1026     2.1526    -0.0470 C.2     
  12 N12            6.0328     3.5041    -0.0399 N.am    
  13 C13            4.8302     4.1313    -0.0241 C.2     
  14 N14            3.6961     3.4935    -0.0158 N.2     
  15 C15            3.6424    -2.1763    -0.0442 C.3     
  16 O16            7.1745     1.5748    -0.0604 O.2     
  17 C17            7.2655     4.2957    -0.0490 C.3     
  18 C18            7.3178     5.1723     1.2039 C.3     
  19 C19            8.6052     5.9990     1.1945 C.3     
  20 C20            8.6317     6.8873    -0.0509 C.3     
  21 C21            8.5794     6.0107    -1.3038 C.3     
  22 C22            7.2920     5.1840    -1.2944 C.3     
  23 O23            7.2930     4.3426     2.3671 O.3     
  24 N24            3.3924    -2.6612    -1.4081 N.3     
  25 C25            3.6299    -4.1033    -1.5043 C.3     
  26 C26            2.9583    -4.6587    -2.7648 C.3     
  27 S27            3.7104    -3.8636    -4.2177 S.3     
  28 C28            3.5833    -2.1005    -3.7889 C.3     
  29 C29            4.1689    -1.8973    -2.3874 C.3     
  30 H30           -0.9630     1.9076     0.0169 H       
  31 H31           -0.9305    -0.5488     0.0083 H       
  32 H32            1.1786    -1.7697    -0.0183 H       
  33 H33            1.1188     3.1811     0.0081 H       
  34 H34            5.7317    -0.5451    -0.0563 H       
  35 H35            4.8132     5.2111    -0.0182 H       
  36 H36            4.6147    -2.5329     0.2957 H       
  37 H37            2.8651    -2.5498     0.6224 H       
  38 H38            8.1264     3.6273    -0.0610 H       
  39 H39            6.4569     5.8406     1.2159 H       
  40 H40            8.6425     6.6235     2.0871 H       
  41 H41            9.4662     5.3306     1.1825 H       
  42 H42            7.7708     7.5557    -0.0389 H       
  43 H43            9.5489     7.4763    -0.0577 H       
  44 H44            8.5983     6.6436    -2.1911 H       
  45 H45            9.4403     5.3423    -1.3159 H       
  46 H46            7.2547     4.5595    -2.1870 H       
  47 H47            6.4311     5.8523    -1.2824 H       
  48 H48            7.3237     4.8324     3.2003 H       
  49 H49            4.7025    -4.2913    -1.5527 H       
  50 H50            3.2160    -4.5979    -0.6255 H       
  51 H51            3.1116    -5.7366    -2.8168 H       
  52 H52            1.8911    -4.4385    -2.7384 H       
  53 H53            4.1450    -1.5068    -4.5101 H       
  54 H54            2.5366    -1.7964    -3.7960 H       
  55 H55            4.1345    -0.8386    -2.1305 H       
  56 H56            5.2041    -2.2385    -2.3744 H       
@<TRIPOS>BOND
   1    1    2 ar
   2    1    6 ar
   3    1   30 1
   4    2    3 ar
   5    2   31 1
   6    3    4 ar
   7    3   32 1
   8    4    5 ar
   9    4    7 ar
  10    5    6 ar
  11    5   10 ar
  12    6   33 1
  13    7    8 ar
  14    7   15 1
  15    8    9 ar
  16    8   34 1
  17    9   10 ar
  18    9   11 1
  19   10   14 1
  20   11   12 am
  21   11   16 2
  22   12   13 1
  23   12   17 1
  24   13   14 2
  25   13   35 1
  26   15   24 1
  27   15   36 1
  28   15   37 1
  29   17   18 1
  30   17   22 1
  31   17   38 1
  32   18   19 1
  33   18   23 1
  34   18   39 1
  35   19   20 1
  36   19   40 1
  37   19   41 1
  38   20   21 1
  39   20   42 1
  40   20   43 1
  41   21   22 1
  42   21   44 1
  43   21   45 1
  44   22   46 1
  45   22   47 1
  46   23   48 1
  47   24   25 1
  48   24   29 1
  49   25   26 1
  50   25   49 1
  51   25   50 1
  52   26   27 1
  53   26   51 1
  54   26   52 1
  55   27   28 1
  56   28   29 1
  57   28   53 1
  58   28   54 1
  59   29   55 1
  60   29   56 1

#	End of record

