#	Name: ASD06352003
#	Creating user name:	WinNT
#	Creation time:	15. 06. 2019 21:06

#	Modifying user name:	WinNT
#	Modification time:	15. 06. 2019 21:06

#	Program:	/corina/corina34_cracker 3.40 0067  02.08.2006

@<TRIPOS>MOLECULE
ASD06352003
  49   48    0    0    0
SMALL
NO_CHARGES


@<TRIPOS>ATOM
   1 C1            -0.0376     1.0791    -0.2137 C.2     
   2 O2            -0.0710    -0.1306    -0.1340 O.2     
   3 N3             2.3648     0.9048     0.1072 N.3     
   4 C4             1.2846     1.7890    -0.3505 C.3     
   5 C5             1.5155     2.1592    -1.8170 C.3     
   6 C6             0.3905     3.0801    -2.2937 C.3     
   7 C7             2.8579     2.8799    -1.9558 C.3     
   8 C8            -3.5602     1.9553    -0.6464 C.2     
   9 O9            -3.3855     3.1473    -0.7860 O.2     
  10 N10           -1.1834     1.7882    -0.1855 N.am    
  11 C11           -2.4693     1.0977    -0.0586 C.3     
  12 C12           -2.7652     0.8384     1.4199 C.3     
  13 C13           -1.7290    -0.1356     1.9843 C.3     
  14 C14           -2.6989     2.1575     2.1922 C.3     
  15 C15           -6.6121     2.7517    -0.3011 C.2     
  16 O16           -6.2849     2.4374     0.8187 O.2     
  17 N17           -4.7298     1.3976    -1.0170 N.am    
  18 C18           -5.8295     2.2448    -1.4851 C.3     
  19 C19           -6.7509     1.4287    -2.3939 C.3     
  20 C20           -6.0012     1.0255    -3.6375 C.2     
  21 O21           -4.8440     1.3581    -3.7825 O.2     
  22 N22           -6.6168     0.2952    -4.5884 N.am    
  23 O23           -7.6728     3.5522    -0.4906 O.3     
  24 H24            2.2705     0.6978     1.0902 H       
  25 H25            2.3945     0.0573    -0.4395 H       
  26 H26            1.2751     2.6948     0.2557 H       
  27 H27            1.5250     1.2533    -2.4232 H       
  28 H28            0.5549     3.3438    -3.3385 H       
  29 H29           -0.5659     2.5666    -2.1948 H       
  30 H30            0.3810     3.9859    -1.6875 H       
  31 H31            3.6594     2.2238    -1.6162 H       
  32 H32            3.0224     3.1436    -3.0006 H       
  33 H33            2.8484     3.7857    -1.3496 H       
  34 H34           -1.1567     2.7557    -0.2493 H       
  35 H35           -2.4261     0.1483    -0.5924 H       
  36 H36           -3.7615     0.4079     1.5210 H       
  37 H37           -0.7477     0.3389     1.9865 H       
  38 H38           -2.0034    -0.4076     3.0035 H       
  39 H39           -1.6978    -1.0320     1.3649 H       
  40 H40           -3.4371     2.8515     1.7901 H       
  41 H41           -2.9097     1.9728     3.2456 H       
  42 H42           -1.7026     2.5881     2.0911 H       
  43 H43           -4.8435     0.4352    -0.9739 H       
  44 H44           -5.4253     3.0900    -2.0421 H       
  45 H45           -7.0848     0.5359    -1.8653 H       
  46 H46           -7.6156     2.0319    -2.6705 H       
  47 H47           -7.5424     0.0292    -4.4724 H       
  48 H48           -6.1343     0.0357    -5.3888 H       
  49 H49           -8.1432     3.8519     0.2992 H       
@<TRIPOS>BOND
   1    1    2 2
   2    1    4 1
   3    1   10 am
   4    3    4 1
   5    3   24 1
   6    3   25 1
   7    4    5 1
   8    4   26 1
   9    5    6 1
  10    5    7 1
  11    5   27 1
  12    6   28 1
  13    6   29 1
  14    6   30 1
  15    7   31 1
  16    7   32 1
  17    7   33 1
  18    8    9 2
  19    8   11 1
  20    8   17 am
  21   10   11 1
  22   10   34 1
  23   11   12 1
  24   11   35 1
  25   12   13 1
  26   12   14 1
  27   12   36 1
  28   13   37 1
  29   13   38 1
  30   13   39 1
  31   14   40 1
  32   14   41 1
  33   14   42 1
  34   15   16 2
  35   15   23 1
  36   15   18 1
  37   17   18 1
  38   17   43 1
  39   18   19 1
  40   18   44 1
  41   19   20 1
  42   19   45 1
  43   19   46 1
  44   20   21 2
  45   20   22 am
  46   22   47 1
  47   22   48 1
  48   23   49 1

#	End of record

