#	Name: ASD00310069
#	Creating user name:	WinNT
#	Creation time:	15. 06. 2019 18:33

#	Modifying user name:	WinNT
#	Modification time:	15. 06. 2019 18:33

#	Program:	/corina/corina34_cracker 3.40 0067  02.08.2006

@<TRIPOS>MOLECULE
ASD00310069
  28   28    0    0    0
SMALL
NO_CHARGES


@<TRIPOS>ATOM
   1 N1            -0.0168     1.3903     0.0097 N.pl3   
   2 C2             0.0021    -0.0041     0.0020 C.ar    
   3 C3             1.2243    -0.6910    -0.0133 C.ar    
   4 C4             1.2322    -2.0879    -0.0210 C.ar    
   5 C5             0.0376    -2.7838    -0.0133 C.ar    
   6 C6            -1.1685    -2.1002     0.0018 C.ar    
   7 C7            -1.1876    -0.7161     0.0153 C.ar    
   8 C8             2.4581     0.0357    -0.0216 C.1     
   9 C9             3.4697     0.6315    -0.0285 C.1     
  10 Si10           5.1068     1.5957    -0.0395 Si      
  11 C11            6.5332     0.3974    -0.0594 C.3     
  12 C12            5.1815     2.6753    -1.5559 C.3     
  13 C13            5.2111     2.6598     1.4861 C.3     
  14 F14           -2.3310    -2.7884     0.0088 F       
  15 F15            2.4054    -2.7577    -0.0362 F       
  16 Br16           0.0488    -4.6747    -0.0243 Br      
  17 H17            0.8165     1.8866     0.0044 H       
  18 H18           -0.8634     1.8638     0.0163 H       
  19 H19           -2.1307    -0.1900     0.0316 H       
  20 H20            6.4722    -0.2252    -0.9520 H       
  21 H21            7.4724     0.9505    -0.0657 H       
  22 H22            6.4895    -0.2343     0.8278 H       
  23 H23            4.3470     3.3764    -1.5443 H       
  24 H24            6.1207     3.2284    -1.5623 H       
  25 H25            5.1205     2.0526    -2.4485 H       
  26 H26            5.1674     2.0282     2.3734 H       
  27 H27            6.1503     3.2130     1.4798 H       
  28 H28            4.3765     3.3609     1.4978 H       
@<TRIPOS>BOND
   1    1    2 1
   2    1   17 1
   3    1   18 1
   4    2    3 ar
   5    2    7 ar
   6    3    4 ar
   7    3    8 1
   8    4    5 ar
   9    4   15 1
  10    5    6 ar
  11    5   16 1
  12    6    7 ar
  13    6   14 1
  14    7   19 1
  15    8    9 3
  16    9   10 1
  17   10   11 1
  18   10   12 1
  19   10   13 1
  20   11   20 1
  21   11   21 1
  22   11   22 1
  23   12   23 1
  24   12   24 1
  25   12   25 1
  26   13   26 1
  27   13   27 1
  28   13   28 1

#	End of record

