#	Name: ASD04882110
#	Creating user name:	WinNT
#	Creation time:	15. 06. 2019 20:54

#	Modifying user name:	WinNT
#	Modification time:	15. 06. 2019 20:54

#	Program:	/corina/corina34_cracker 3.40 0067  02.08.2006

@<TRIPOS>MOLECULE
ASD04882110
  80   85    0    0    0
SMALL
NO_CHARGES


@<TRIPOS>ATOM
   1 C1             0.4797     1.0609    -0.4872 C.2     
   2 O2             0.5568    -0.2111    -0.9100 O.3     
   3 C3             1.7881    -0.4166    -1.3986 C.2     
   4 N4             2.4783     0.6794    -1.2952 N.2     
   5 C5             1.6912     1.6328    -0.7269 C.2     
   6 C6             2.0778     3.0233    -0.4276 C.2     
   7 O7             1.2758     3.7806     0.0849 O.2     
   8 N8             3.3200     3.4556    -0.7218 N.am    
   9 C9             3.6542     4.8041    -0.5390 C.ar    
  10 C10            4.9527     5.1579    -0.1609 C.ar    
  11 C11            5.2855     6.4950     0.0208 C.ar    
  12 C12            4.3377     7.4762    -0.1707 C.ar    
  13 C13            3.0378     7.1293    -0.5481 C.ar    
  14 C14            2.7020     5.7854    -0.7376 C.ar    
  15 N15            5.9138     4.1694     0.0342 N.3     
  16 C16            5.5795     3.3315     1.1942 C.3     
  17 C17            6.6145     2.2118     1.3266 C.3     
  18 N18            7.9529     2.8004     1.4740 N.3     
  19 C19            8.2873     3.6383     0.3140 C.3     
  20 C20            7.2523     4.7580     0.1816 C.3     
  21 C21            8.9170     1.8089     1.6697 C.ar    
  22 C22            8.9115     1.0528     2.8353 C.ar    
  23 C23           10.8266    -0.1558     2.0573 C.ar    
  24 C24            9.8799     1.5726     0.6971 C.ar    
  25 C25            9.8657     0.0730     3.0254 C.ar    
  26 C26           10.8315     0.5910     0.8936 C.ar    
  27 C27            7.8655     1.3020     3.8912 C.3     
  28 C28            2.0228     8.1802    -0.7527 C.2     
  29 N29            2.3491     9.4759    -0.5756 N.am    
  30 O30            0.8919     7.8775    -1.0812 O.2     
  31 C31            1.3411    10.5194    -0.7788 C.3     
  32 C32            1.9665    11.8907    -0.5151 C.3     
  33 C33            0.9138    12.9805    -0.7273 C.3     
  34 N34            1.5126    14.2935    -0.4748 N.am    
  35 C35            2.1129    15.0464    -1.4127 C.2     
  36 C36            2.6238    16.3316    -0.7998 C.3     
  37 C37            2.6115    16.0571     0.7219 C.3     
  38 C38            1.5284    14.9587     0.8333 C.3     
  39 O39            2.2287    14.7396    -2.5804 O.2     
  40 C40            2.2924    -1.7142    -1.9757 C.3     
  41 C41            2.2928    -2.9411    -1.0616 C.3     
  42 C42            1.2723    -2.8329    -2.1964 C.3     
  43 H43           -0.3813     1.5403    -0.0453 H       
  44 H44            3.9827     2.8333    -1.0602 H       
  45 H45            6.2894     6.7654     0.3132 H       
  46 H46            4.5994     8.5143    -0.0287 H       
  47 H47            1.6995     5.5147    -1.0344 H       
  48 H48            5.5862     3.9415     2.0975 H       
  49 H49            4.5895     2.8970     1.0558 H       
  50 H50            6.3850     1.6062     2.2034 H       
  51 H51            6.5888     1.5855     0.4349 H       
  52 H52            9.2773     4.0728     0.4524 H       
  53 H53            8.2806     3.0283    -0.5893 H       
  54 H54            7.4818     5.3636    -0.6952 H       
  55 H55            7.2779     5.3843     1.0733 H       
  56 H56           11.5720    -0.9225     2.2086 H       
  57 H57            9.8843     2.1556    -0.2121 H       
  58 H58            9.8620    -0.5151     3.9312 H       
  59 H59           11.5833     0.4098     0.1397 H       
  60 H60            7.0275     0.6215     3.7403 H       
  61 H61            8.2975     1.1333     4.8776 H       
  62 H62            7.5149     2.3316     3.8194 H       
  63 H63            3.2512     9.7174    -0.3136 H       
  64 H64            0.9767    10.4776    -1.8052 H       
  65 H65            0.5102    10.3608    -0.0914 H       
  66 H66            2.3309    11.9325     0.5113 H       
  67 H67            2.7974    12.0493    -1.2025 H       
  68 H68            0.5493    12.9387    -1.7537 H       
  69 H69            0.0829    12.8219    -0.0399 H       
  70 H70            3.6375    16.5408    -1.1415 H       
  71 H71            1.9594    17.1608    -1.0432 H       
  72 H72            3.5807    15.6906     1.0600 H       
  73 H73            2.3180    16.9483     1.2767 H       
  74 H74            0.5557    15.4041     1.0418 H       
  75 H75            1.7936    14.2471     1.6152 H       
  76 H76            3.1045    -1.6237    -2.6970 H       
  77 H77            3.1051    -3.6580    -1.1818 H       
  78 H78            1.9283    -2.8098    -0.0428 H       
  79 H79            0.2365    -2.6305    -1.9242 H       
  80 H80            1.4132    -3.4787    -3.0632 H       
@<TRIPOS>BOND
   1    1    2 1
   2    1    5 2
   3    1   43 1
   4    2    3 1
   5    3    4 2
   6    3   40 1
   7    4    5 1
   8    5    6 1
   9    6    7 2
  10    6    8 am
  11    8    9 1
  12    8   44 1
  13    9   10 ar
  14    9   14 ar
  15   10   11 ar
  16   10   15 1
  17   11   12 ar
  18   11   45 1
  19   12   13 ar
  20   12   46 1
  21   13   14 ar
  22   13   28 1
  23   14   47 1
  24   15   16 1
  25   15   20 1
  26   16   17 1
  27   16   48 1
  28   16   49 1
  29   17   18 1
  30   17   50 1
  31   17   51 1
  32   18   19 1
  33   18   21 1
  34   19   20 1
  35   19   52 1
  36   19   53 1
  37   20   54 1
  38   20   55 1
  39   21   22 ar
  40   21   24 ar
  41   22   25 ar
  42   22   27 1
  43   23   25 ar
  44   23   26 ar
  45   23   56 1
  46   24   26 ar
  47   24   57 1
  48   25   58 1
  49   26   59 1
  50   27   60 1
  51   27   61 1
  52   27   62 1
  53   28   29 am
  54   28   30 2
  55   29   31 1
  56   29   63 1
  57   31   32 1
  58   31   64 1
  59   31   65 1
  60   32   33 1
  61   32   66 1
  62   32   67 1
  63   33   34 1
  64   33   68 1
  65   33   69 1
  66   34   35 am
  67   34   38 1
  68   35   36 1
  69   35   39 2
  70   36   37 1
  71   36   70 1
  72   36   71 1
  73   37   38 1
  74   37   72 1
  75   37   73 1
  76   38   74 1
  77   38   75 1
  78   40   41 1
  79   40   42 1
  80   40   76 1
  81   41   42 1
  82   41   77 1
  83   41   78 1
  84   42   79 1
  85   42   80 1

#	End of record

