#	Name: ASD01813992
#	Creating user name:	WinNT
#	Creation time:	15. 06. 2019 19:31

#	Modifying user name:	WinNT
#	Modification time:	15. 06. 2019 19:31

#	Program:	/corina/corina34_cracker 3.40 0067  02.08.2006

@<TRIPOS>MOLECULE
ASD01813992
  39   42    0    0    0
SMALL
NO_CHARGES


@<TRIPOS>ATOM
   1 C1            -0.0169     1.3969     0.0097 C.ar    
   2 C2             0.0021    -0.0041     0.0020 C.ar    
   3 C3             1.2465    -0.6678    -0.0134 C.ar    
   4 N4             2.3777     0.0239    -0.0201 N.ar    
   5 C5             2.3717     1.3383    -0.0125 C.ar    
   6 C6             1.1825     2.0589     0.0018 C.ar    
   7 C7             1.2365    -2.1420    -0.0213 C.2     
   8 N8            -1.1391    -0.7340     0.0095 N.2     
   9 C9            -1.1167    -2.0327     0.0027 C.2     
  10 N10            0.0317    -2.7576    -0.0131 N.am    
  11 C11           -0.0349    -4.2211    -0.0203 C.3     
  12 C12           -1.2463    -4.9091     2.0582 C.ar    
  13 C13           -0.0441    -4.7306     1.3979 C.ar    
  14 C14            1.1497    -5.0183     2.0346 C.ar    
  15 C15           -1.2604    -5.3759     3.3571 C.ar    
  16 C16           -0.0611    -5.6677     4.0028 C.ar    
  17 C17            1.1468    -5.4861     3.3332 C.ar    
  18 C18           -0.0702    -6.1706     5.3998 C.2     
  19 O19            2.2723    -2.7808    -0.0350 O.2     
  20 C20           -1.2106    -6.4063     6.1920 C.2     
  21 N21           -0.8121    -6.8441     7.3569 N.2     
  22 N22            0.5867    -6.9048     7.3547 N.pl3   
  23 C23            1.0243    -6.4939     6.1474 C.2     
  24 C24            1.4292    -7.3443     8.4697 C.3     
  25 H25           -0.9507     1.9396     0.0171 H       
  26 H26            3.3114     1.8706    -0.0180 H       
  27 H27            1.2044     3.1387     0.0071 H       
  28 H28           -2.0579    -2.5622     0.0092 H       
  29 H29           -0.9453    -4.5409    -0.5272 H       
  30 H30            0.8327    -4.6217    -0.5446 H       
  31 H31           -2.1753    -4.6783     1.5582 H       
  32 H32            2.0856    -4.8772     1.5145 H       
  33 H33           -2.1996    -5.5146     3.8719 H       
  34 H34            2.0795    -5.7112     3.8291 H       
  35 H35           -2.2358    -6.2517     5.8896 H       
  36 H36            2.0547    -6.4304     5.8302 H       
  37 H37            1.5960    -8.4190     8.3975 H       
  38 H38            2.3864    -6.8244     8.4287 H       
  39 H39            0.9320    -7.1163     9.4126 H       
@<TRIPOS>BOND
   1    1    2 ar
   2    1    6 ar
   3    1   25 1
   4    2    3 ar
   5    2    8 1
   6    3    4 ar
   7    3    7 1
   8    4    5 ar
   9    5    6 ar
  10    5   26 1
  11    6   27 1
  12    7   10 am
  13    7   19 2
  14    8    9 2
  15    9   10 1
  16    9   28 1
  17   10   11 1
  18   11   13 1
  19   11   29 1
  20   11   30 1
  21   12   15 ar
  22   12   13 ar
  23   12   31 1
  24   13   14 ar
  25   14   17 ar
  26   14   32 1
  27   15   16 ar
  28   15   33 1
  29   16   17 ar
  30   16   18 1
  31   17   34 1
  32   18   23 2
  33   18   20 1
  34   20   21 2
  35   20   35 1
  36   21   22 1
  37   22   23 1
  38   22   24 1
  39   23   36 1
  40   24   37 1
  41   24   38 1
  42   24   39 1

#	End of record

