#	Name: ASD01510016
#	Creating user name:	WinNT
#	Creation time:	15. 06. 2019 19:21

#	Modifying user name:	WinNT
#	Modification time:	15. 06. 2019 19:21

#	Program:	/corina/corina34_cracker 3.40 0067  02.08.2006

@<TRIPOS>MOLECULE
ASD01510016
  41   42    0    0    0
SMALL
NO_CHARGES


@<TRIPOS>ATOM
   1 C1             0.6131     0.9883     0.1174 C.3     
   2 O2             0.6059    -0.4349    -0.0114 O.3     
   3 C3            -0.5960    -1.0559     0.0862 C.ar    
   4 N4            -1.7040    -0.3518     0.2926 N.ar    
   5 C5            -2.8779    -0.9480     0.3889 C.ar    
   6 F6            -3.9802    -0.1956     0.5986 F       
   7 N7            -3.0063    -2.2578     0.2860 N.ar    
   8 C8            -1.9470    -3.0331     0.0794 C.ar    
   9 C9            -0.6882    -2.4426    -0.0343 C.ar    
  10 S10            0.7493    -3.4238    -0.3091 S.3     
  11 C11            0.7737    -3.4440    -2.0708 C.ar    
  12 N12            1.7387    -4.1036    -2.6955 N.ar    
  13 C13            1.7884    -4.1407    -4.0238 C.ar    
  14 N14            2.8044    -4.8357    -4.6717 N.am    
  15 C15            3.8043    -5.3888    -3.9571 C.2     
  16 O16            3.8698    -5.2022    -2.7607 O.2     
  17 C17            4.8410    -6.2393    -4.6449 C.3     
  18 C18            0.8105    -3.4756    -4.7572 C.ar    
  19 C19           -0.1870    -2.7938    -4.0666 C.ar    
  20 N20           -0.1764    -2.8039    -2.7369 N.ar    
  21 N21           -1.1849    -2.1150    -4.7582 N.am    
  22 C22           -2.2029    -1.5441    -4.0843 C.2     
  23 O23           -2.2016    -1.5420    -2.8716 O.2     
  24 C24           -3.3427    -0.9083    -4.8377 C.3     
  25 O25           -2.0882    -4.3781    -0.0246 O.3     
  26 C26           -3.4117    -4.9028     0.0979 C.3     
  27 H27            1.6343     1.3567     0.0199 H       
  28 H28           -0.0075     1.4270    -0.6639 H       
  29 H29            0.2181     1.2667     1.0944 H       
  30 H30            2.7932    -4.9221    -5.6377 H       
  31 H31            5.6683    -5.6097    -4.9726 H       
  32 H32            5.2112    -6.9934    -3.9505 H       
  33 H33            4.3933    -6.7298    -5.5092 H       
  34 H34            0.8254    -3.4881    -5.8370 H       
  35 H35           -1.1481    -2.0526    -5.7255 H       
  36 H36           -3.1699    -1.0074    -5.9094 H       
  37 H37           -4.2757    -1.4056    -4.5726 H       
  38 H38           -3.4068     0.1479    -4.5761 H       
  39 H39           -3.3834    -5.9877    -0.0042 H       
  40 H40           -3.8176    -4.6404     1.0749 H       
  41 H41           -4.0437    -4.4807    -0.6834 H       
@<TRIPOS>BOND
   1    1    2 1
   2    1   27 1
   3    1   28 1
   4    1   29 1
   5    2    3 1
   6    3    4 ar
   7    3    9 ar
   8    4    5 ar
   9    5    6 1
  10    5    7 ar
  11    7    8 ar
  12    8    9 ar
  13    8   25 1
  14    9   10 1
  15   10   11 1
  16   11   12 ar
  17   11   20 ar
  18   12   13 ar
  19   13   14 1
  20   13   18 ar
  21   14   15 am
  22   14   30 1
  23   15   16 2
  24   15   17 1
  25   17   31 1
  26   17   32 1
  27   17   33 1
  28   18   19 ar
  29   18   34 1
  30   19   20 ar
  31   19   21 1
  32   21   22 am
  33   21   35 1
  34   22   23 2
  35   22   24 1
  36   24   36 1
  37   24   37 1
  38   24   38 1
  39   25   26 1
  40   26   39 1
  41   26   40 1
  42   26   41 1

#	End of record

