#	Name: ASD01810673
#	Creating user name:	WinNT
#	Creation time:	15. 06. 2019 19:25

#	Modifying user name:	WinNT
#	Modification time:	15. 06. 2019 19:25

#	Program:	/corina/corina34_cracker 3.40 0067  02.08.2006

@<TRIPOS>MOLECULE
ASD01810673
  58   62    0    0    0
SMALL
NO_CHARGES


@<TRIPOS>ATOM
   1 C1            -0.3798     1.6534    -1.1607 C.ar    
   2 C2             0.1486     0.7723    -0.2152 C.ar    
   3 C3            -0.6318     0.3333     0.8362 C.ar    
   4 C4            -1.9384     0.7613     0.9599 C.ar    
   5 C5            -2.4796     1.6424     0.0207 C.ar    
   6 C6            -1.6958     2.0938    -1.0388 C.ar    
   7 C7            -3.8796     2.0992     0.1539 C.2     
   8 N8            -4.1569     3.4173     0.1998 N.am    
   9 O9            -4.7804     1.2859     0.2221 O.2     
  10 C10           -5.5325     3.8858     0.4163 C.3     
  11 C11           -3.0884     4.4131     0.0403 C.3     
  12 C12           -3.1304     5.3764     1.2307 C.3     
  13 C13           -4.5342     5.9743     1.3487 C.3     
  14 C14           -5.5421     4.8561     1.6017 C.3     
  15 C15           -4.5701     6.9483     2.4980 C.ar    
  16 C16           -4.8917     8.2741     2.2673 C.ar    
  17 C17           -4.9268     9.1710     3.3148 C.ar    
  18 C18           -4.6369     8.7381     4.6103 C.ar    
  19 C19           -4.3132     7.3987     4.8359 C.ar    
  20 C20           -4.2869     6.5115     3.7799 C.ar    
  21 C21            0.4577     2.1229    -2.2859 C.2     
  22 N22            1.7345     1.8607    -2.4371 N.2     
  23 C23            2.1862     2.4386    -3.5642 C.ar    
  24 C24            1.0982     3.1121    -4.1558 C.ar    
  25 N25            0.0163     2.8908    -3.3284 N.pl3   
  26 C26            3.4281     2.4951    -4.2108 C.ar    
  27 C27            3.5313     3.1955    -5.3788 C.ar    
  28 N28            2.4898     3.8166    -5.9065 N.ar    
  29 C29            1.2976     3.7974    -5.3433 C.ar    
  30 C30            1.5737     0.2990    -0.3427 C.3     
  31 C31           -2.7827     0.2767     2.1102 C.3     
  32 C32           -4.6710     9.6637     5.7024 C.1     
  33 N33           -4.6981    10.3979     6.5688 N.1     
  34 H34           -0.2181    -0.3482     1.5648 H       
  35 H35           -2.1093     2.7754    -1.7675 H       
  36 H36           -5.8893     4.3975    -0.4776 H       
  37 H37           -6.1781     3.0352     0.6352 H       
  38 H38           -2.1217     3.9102     0.0111 H       
  39 H39           -3.2417     4.9686    -0.8849 H       
  40 H40           -2.8873     4.8354     2.1452 H       
  41 H41           -2.4060     6.1762     1.0772 H       
  42 H42           -4.7863     6.4941     0.4244 H       
  43 H43           -6.5394     5.2827     1.7093 H       
  44 H44           -5.2733     4.3237     2.5141 H       
  45 H45           -5.1153     8.6077     1.2647 H       
  46 H46           -5.1776    10.2057     3.1333 H       
  47 H47           -4.0876     7.0574     5.8354 H       
  48 H48           -4.0367     5.4752     3.9530 H       
  49 H49           -0.8860     3.2222    -3.4585 H       
  50 H50            4.2886     1.9940    -3.7927 H       
  51 H51            4.4853     3.2434    -5.8827 H       
  52 H52            0.4741     4.3184    -5.8088 H       
  53 H53            2.2425     1.0362     0.1014 H       
  54 H54            1.6878    -0.6535     0.1749 H       
  55 H55            1.8214     0.1718    -1.3965 H       
  56 H56           -2.6058     0.9071     2.9817 H       
  57 H57           -3.8360     0.3260     1.8339 H       
  58 H58           -2.5171    -0.7536     2.3471 H       
@<TRIPOS>BOND
   1    1    2 ar
   2    1   21 1
   3    1    6 ar
   4    2    3 ar
   5    2   30 1
   6    3    4 ar
   7    3   34 1
   8    4    5 ar
   9    4   31 1
  10    5    6 ar
  11    5    7 1
  12    6   35 1
  13    7    8 am
  14    7    9 2
  15    8   10 1
  16    8   11 1
  17   10   14 1
  18   10   36 1
  19   10   37 1
  20   11   12 1
  21   11   38 1
  22   11   39 1
  23   12   13 1
  24   12   40 1
  25   12   41 1
  26   13   14 1
  27   13   15 1
  28   13   42 1
  29   14   43 1
  30   14   44 1
  31   15   16 ar
  32   15   20 ar
  33   16   17 ar
  34   16   45 1
  35   17   18 ar
  36   17   46 1
  37   18   19 ar
  38   18   32 1
  39   19   20 ar
  40   19   47 1
  41   20   48 1
  42   21   22 2
  43   21   25 1
  44   22   23 1
  45   23   24 ar
  46   23   26 ar
  47   24   25 1
  48   24   29 ar
  49   25   49 1
  50   26   27 ar
  51   26   50 1
  52   27   28 ar
  53   27   51 1
  54   28   29 ar
  55   29   52 1
  56   30   53 1
  57   30   54 1
  58   30   55 1
  59   31   56 1
  60   31   57 1
  61   31   58 1
  62   32   33 3

#	End of record

