#	Name: ASD06170011
#	Creating user name:	WinNT
#	Creation time:	15. 06. 2019 21:05

#	Modifying user name:	WinNT
#	Modification time:	15. 06. 2019 21:05

#	Program:	/corina/corina34_cracker 3.40 0067  02.08.2006

@<TRIPOS>MOLECULE
ASD06170011
  68   73    0    0    0
SMALL
NO_CHARGES


@<TRIPOS>ATOM
   1 N1             0.2056     1.4597    -0.9325 N.pl3   
   2 N2            -0.0545     0.3541    -0.1177 N.am    
   3 C3             1.1012    -0.0608     0.4390 C.2     
   4 C4             2.1578     0.8349    -0.0516 C.2     
   5 C5             1.5359     1.7536    -0.8964 C.2     
   6 C6             3.5838     0.7745     0.2813 C.2     
   7 O7             4.3381     1.6444    -0.1130 O.2     
   8 N8             4.0598    -0.2444     1.0241 N.am    
   9 C9             3.9217     3.6682    -3.0805 C.ar    
  10 C10            3.3312     2.6109    -2.4171 C.ar    
  11 C11            2.2023     2.8526    -1.6247 C.ar    
  12 C12            1.7227     4.1656    -1.5425 C.ar    
  13 C13            2.3766     5.1616    -2.2404 C.ar    
  14 N14            3.4369     4.8897    -2.9752 N.ar    
  15 O15            1.2423    -0.9979     1.2025 O.2     
  16 C16           -0.7985     2.1882    -1.7118 C.3     
  17 C17            5.4222    -0.3194     1.3136 C.ar    
  18 C18            6.2096     0.8224     1.2163 C.ar    
  19 C19            7.5593     0.7370     1.5061 C.ar    
  20 C20            8.0794    -0.4978     1.8864 C.ar    
  21 C21            7.2342    -1.5932     1.9617 C.ar    
  22 N22            5.9500    -1.4752     1.6831 N.ar    
  23 O23            9.4007    -0.6270     2.1797 O.3     
  24 N24           10.6655     0.6158     5.9033 N.ar    
  25 C25            9.4117     0.7690     5.5470 C.ar    
  26 C26            8.9495     0.3630     4.3017 C.ar    
  27 C27            9.8240    -0.2207     3.4018 C.ar    
  28 C28           11.1718    -0.3807     3.7961 C.ar    
  29 C29           12.1163    -0.9633     2.9384 C.ar    
  30 C30           13.4069    -1.1031     3.3469 C.ar    
  31 C31           13.8061    -0.6722     4.6154 C.ar    
  32 C32           12.9028    -0.0967     5.4801 C.ar    
  33 C33           11.5651     0.0594     5.0835 C.ar    
  34 O34           15.1002    -0.8235     4.9993 O.3     
  35 C35           15.9897    -1.4279     4.0582 C.3     
  36 C36           -1.3696    -0.2546     0.0971 C.3     
  37 C37           -1.5500    -1.4095    -0.8541 C.ar    
  38 C38           -1.1571    -2.6809    -0.4799 C.ar    
  39 C39           -1.3225    -3.7403    -1.3523 C.ar    
  40 C40           -1.8813    -3.5284    -2.5988 C.ar    
  41 C41           -2.2750    -2.2571    -2.9727 C.ar    
  42 C42           -2.1136    -1.1985    -2.0986 C.ar    
  43 H43            3.4550    -0.9256     1.3574 H       
  44 H44            4.7954     3.4928    -3.6906 H       
  45 H45            3.7336     1.6128    -2.5083 H       
  46 H46            0.8545     4.3957    -0.9427 H       
  47 H47            2.0143     6.1775    -2.1838 H       
  48 H48           -1.7776     1.7348    -1.5572 H       
  49 H49           -0.8247     3.2288    -1.3883 H       
  50 H50           -0.5402     2.1430    -2.7698 H       
  51 H51            5.7730     1.7641     0.9179 H       
  52 H52            8.1952     1.6074     1.4387 H       
  53 H53            7.6304    -2.5539     2.2558 H       
  54 H54            8.7201     1.2230     6.2413 H       
  55 H55            7.9117     0.5019     4.0369 H       
  56 H56           11.8200    -1.3005     1.9561 H       
  57 H57           14.1310    -1.5525     2.6835 H       
  58 H58           13.2213     0.2326     6.4582 H       
  59 H59           16.0220    -0.8257     3.1503 H       
  60 H60           16.9887    -1.4887     4.4898 H       
  61 H61           15.6366    -2.4305     3.8168 H       
  62 H62           -1.4401    -0.6147     1.1234 H       
  63 H63           -2.1472     0.4881    -0.0816 H       
  64 H64           -0.7206    -2.8465     0.4940 H       
  65 H65           -1.0149    -4.7335    -1.0602 H       
  66 H66           -2.0099    -4.3559    -3.2808 H       
  67 H67           -2.7112    -2.0915    -3.9467 H       
  68 H68           -2.4246    -0.2059    -2.3892 H       
@<TRIPOS>BOND
   1    1    2 1
   2    1    5 1
   3    1   16 1
   4    2    3 am
   5    2   36 1
   6    3    4 1
   7    3   15 2
   8    4    5 2
   9    4    6 1
  10    5   11 1
  11    6    7 2
  12    6    8 am
  13    8   17 1
  14    8   43 1
  15    9   10 ar
  16    9   14 ar
  17    9   44 1
  18   10   11 ar
  19   10   45 1
  20   11   12 ar
  21   12   13 ar
  22   12   46 1
  23   13   14 ar
  24   13   47 1
  25   16   48 1
  26   16   49 1
  27   16   50 1
  28   17   18 ar
  29   17   22 ar
  30   18   19 ar
  31   18   51 1
  32   19   20 ar
  33   19   52 1
  34   20   21 ar
  35   20   23 1
  36   21   22 ar
  37   21   53 1
  38   23   27 1
  39   24   25 ar
  40   24   33 ar
  41   25   26 ar
  42   25   54 1
  43   26   27 ar
  44   26   55 1
  45   27   28 ar
  46   28   29 ar
  47   28   33 ar
  48   29   30 ar
  49   29   56 1
  50   30   31 ar
  51   30   57 1
  52   31   32 ar
  53   31   34 1
  54   32   33 ar
  55   32   58 1
  56   34   35 1
  57   35   59 1
  58   35   60 1
  59   35   61 1
  60   36   37 1
  61   36   62 1
  62   36   63 1
  63   37   38 ar
  64   37   42 ar
  65   38   39 ar
  66   38   64 1
  67   39   40 ar
  68   39   65 1
  69   40   41 ar
  70   40   66 1
  71   41   42 ar
  72   41   67 1
  73   42   68 1

#	End of record

