#	Name: ASD01914389
#	Creating user name:	WinNT
#	Creation time:	15. 06. 2019 20:03

#	Modifying user name:	WinNT
#	Modification time:	15. 06. 2019 20:03

#	Program:	/corina/corina34_cracker 3.40 0067  02.08.2006

@<TRIPOS>MOLECULE
ASD01914389
  45   47    0    0    0
SMALL
NO_CHARGES


@<TRIPOS>ATOM
   1 C1            -0.0167     1.3806     0.0096 C.ar    
   2 C2             0.0021    -0.0041     0.0020 C.ar    
   3 C3             1.2096    -0.6818    -0.0127 C.ar    
   4 C4             2.3977     0.0225    -0.0202 C.ar    
   5 C5             2.3808     1.4105    -0.0131 C.ar    
   6 C6             1.1693     2.0882     0.0021 C.ar    
   7 N7             3.5864     2.1275    -0.0202 N.pl3   
   8 C8             4.6538     1.9288     0.8134 C.2     
   9 C9             5.6005     2.8365     0.4591 C.2     
  10 C10            6.9348     2.9974     1.0874 C.ar    
  11 C11            7.3551     2.1064     2.0732 C.ar    
  12 C12            8.5974     2.2579     2.6561 C.ar    
  13 C13            9.4268     3.2921     2.2652 C.ar    
  14 C14            9.0155     4.1844     1.2843 C.ar    
  15 C15            7.7735     4.0361     0.6898 C.ar    
  16 N16            5.1124     3.5651    -0.5654 N.2     
  17 C17            3.9140     3.1446    -0.8599 C.2     
  18 C18            3.0345     3.6979    -1.9514 C.3     
  19 C19            2.1908     4.8171    -1.3978 C.2     
  20 O20            2.2932     5.1331    -0.2361 O.2     
  21 O21            1.3256     5.4630    -2.1953 O.3     
  22 C22            0.5457     6.5303    -1.5943 C.3     
  23 C23           -0.3770     7.1439    -2.6493 C.3     
  24 F24           -1.1591    -0.6946     0.0094 F       
  25 O25            9.8340     5.2003     0.9036 O.3     
  26 C26           11.1029     5.2899     1.5548 C.3     
  27 H27           -0.9594     1.9075     0.0169 H       
  28 H28            1.2224    -1.7617    -0.0179 H       
  29 H29            3.3392    -0.5063    -0.0313 H       
  30 H30            1.1543     3.1681     0.0073 H       
  31 H31            4.7287     1.1931     1.6005 H       
  32 H32            6.7089     1.2977     2.3813 H       
  33 H33            8.9218     1.5667     3.4199 H       
  34 H34           10.3976     3.4067     2.7245 H       
  35 H35            7.4524     4.7293    -0.0737 H       
  36 H36            3.6567     4.0784    -2.7615 H       
  37 H37            2.3864     2.9080    -2.3313 H       
  38 H38           -0.0534     6.1271    -0.7779 H       
  39 H39            1.2168     7.2975    -1.2081 H       
  40 H40            0.2221     7.5471    -3.4657 H       
  41 H41           -1.0481     6.3767    -3.0355 H       
  42 H42           -0.9624     7.9451    -2.1982 H       
  43 H43           10.9528     5.4205     2.6265 H       
  44 H44           11.6685     4.3755     1.3759 H       
  45 H45           11.6552     6.1421     1.1587 H       
@<TRIPOS>BOND
   1    1    2 ar
   2    1    6 ar
   3    1   27 1
   4    2    3 ar
   5    2   24 1
   6    3    4 ar
   7    3   28 1
   8    4    5 ar
   9    4   29 1
  10    5    6 ar
  11    5    7 1
  12    6   30 1
  13    7    8 1
  14    7   17 1
  15    8    9 2
  16    8   31 1
  17    9   10 1
  18    9   16 1
  19   10   11 ar
  20   10   15 ar
  21   11   12 ar
  22   11   32 1
  23   12   13 ar
  24   12   33 1
  25   13   14 ar
  26   13   34 1
  27   14   15 ar
  28   14   25 1
  29   15   35 1
  30   16   17 2
  31   17   18 1
  32   18   19 1
  33   18   36 1
  34   18   37 1
  35   19   20 2
  36   19   21 1
  37   21   22 1
  38   22   23 1
  39   22   38 1
  40   22   39 1
  41   23   40 1
  42   23   41 1
  43   23   42 1
  44   25   26 1
  45   26   43 1
  46   26   44 1
  47   26   45 1

#	End of record

