#	Name: ASD02030499
#	Creating user name:	WinNT
#	Creation time:	15. 06. 2019 20:15

#	Modifying user name:	WinNT
#	Modification time:	15. 06. 2019 20:15

#	Program:	/corina/corina34_cracker 3.40 0067  02.08.2006

@<TRIPOS>MOLECULE
ASD02030499
  58   62    0    0    0
SMALL
NO_CHARGES


@<TRIPOS>ATOM
   1 N1             0.3134     1.1612     0.0447 N.am    
   2 C2            -0.0471    -0.2635     0.0415 C.3     
   3 C3            -1.0937    -0.5067     1.1358 C.3     
   4 N4            -2.1607     0.4941     0.9959 N.am    
   5 C5            -1.8003     1.9189     0.9991 C.3     
   6 C6            -0.7543     2.1622    -0.0896 C.3     
   7 C7             1.5994     1.5432     0.1741 C.2     
   8 C8             2.6476     0.5338     0.4349 C.2     
   9 N9             3.9127     0.7820     0.6969 N.2     
  10 N10            2.4745    -0.8006     0.4520 N.2     
  11 C11            3.6366    -1.3401     0.7188 C.2     
  12 N12            4.5265    -0.3377     0.8694 N.pl3   
  13 O13            1.8974     2.7176     0.0765 O.2     
  14 C14           -3.4468     0.1122     0.8664 C.2     
  15 C15           -3.7876    -1.3198     0.8086 C.2     
  16 O16           -4.3259     0.9498     0.7974 O.2     
  17 C17           -0.1666     3.5661     0.0675 C.3     
  18 C18           -1.4056     2.0256    -1.4673 C.3     
  19 C19            5.8884    -0.4886     1.1635 C.ar    
  20 C20            6.6998     0.6301     1.2932 C.ar    
  21 C21            8.0429     0.4779     1.5838 C.ar    
  22 C22            8.5777    -0.7882     1.7447 C.ar    
  23 C23            7.7709    -1.9039     1.6159 C.ar    
  24 C24            6.4274    -1.7574     1.3313 C.ar    
  25 Cl25           9.0591     1.8759     1.7464 Cl      
  26 N26           -2.8957    -2.2729     1.0410 N.2     
  27 C27           -3.3353    -3.4916     0.9555 C.2     
  28 S28           -5.0456    -3.4674     0.5409 S.3     
  29 C29           -5.0340    -1.7574     0.5202 C.2     
  30 C30           -2.5250    -4.7101     1.1719 C.ar    
  31 C31           -3.1102    -5.9709     1.0520 C.ar    
  32 C32           -1.1710    -4.6034     1.4911 C.ar    
  33 C33           -0.4206    -5.7438     1.6913 C.ar    
  34 C34           -1.0079    -6.9910     1.5756 C.ar    
  35 C35           -2.3489    -7.1036     1.2546 C.ar    
  36 H36           -0.4632    -0.5334    -0.9292 H       
  37 H37            0.8391    -0.8655     0.2425 H       
  38 H38           -1.5132    -1.5067     1.0250 H       
  39 H39           -0.6273    -0.4096     2.1162 H       
  40 H40           -2.6865     2.5209     0.7981 H       
  41 H41           -1.3842     2.1887     1.9697 H       
  42 H42            3.8447    -2.3963     0.8056 H       
  43 H43            0.4074     3.6183     0.9926 H       
  44 H44            0.4862     3.7834    -0.7779 H       
  45 H45           -0.9749     4.2968     0.0997 H       
  46 H46           -2.2068     2.7583    -1.5646 H       
  47 H47           -0.6582     2.1995    -2.2414 H       
  48 H48           -1.8160     1.0218    -1.5773 H       
  49 H49            6.2826     1.6182     1.1669 H       
  50 H50            9.6272    -0.9052     1.9710 H       
  51 H51            8.1911    -2.8908     1.7416 H       
  52 H52            5.7981    -2.6294     1.2313 H       
  53 H53           -5.8849    -1.1278     0.3060 H       
  54 H54           -4.1570    -6.0601     0.8014 H       
  55 H55           -0.7112    -3.6303     1.5810 H       
  56 H56            0.6276    -5.6626     1.9385 H       
  57 H57           -0.4162    -7.8807     1.7329 H       
  58 H58           -2.8017    -8.0801     1.1661 H       
@<TRIPOS>BOND
   1    1    2 1
   2    1    7 am
   3    1    6 1
   4    2    3 1
   5    2   36 1
   6    2   37 1
   7    3    4 1
   8    3   38 1
   9    3   39 1
  10    4    5 1
  11    4   14 am
  12    5    6 1
  13    5   40 1
  14    5   41 1
  15    6   17 1
  16    6   18 1
  17    7    8 1
  18    7   13 2
  19    8    9 2
  20    8   10 1
  21    9   12 1
  22   10   11 2
  23   11   12 1
  24   11   42 1
  25   12   19 1
  26   14   15 1
  27   14   16 2
  28   15   26 1
  29   15   29 2
  30   17   43 1
  31   17   44 1
  32   17   45 1
  33   18   46 1
  34   18   47 1
  35   18   48 1
  36   19   20 ar
  37   19   24 ar
  38   20   21 ar
  39   20   49 1
  40   21   22 ar
  41   21   25 1
  42   22   23 ar
  43   22   50 1
  44   23   24 ar
  45   23   51 1
  46   24   52 1
  47   26   27 2
  48   27   28 1
  49   27   30 1
  50   28   29 1
  51   29   53 1
  52   30   31 ar
  53   30   32 ar
  54   31   35 ar
  55   31   54 1
  56   32   33 ar
  57   32   55 1
  58   33   34 ar
  59   33   56 1
  60   34   35 ar
  61   34   57 1
  62   35   58 1

#	End of record

