#	Name: ASD01816097
#	Creating user name:	WinNT
#	Creation time:	15. 06. 2019 19:34

#	Modifying user name:	WinNT
#	Modification time:	15. 06. 2019 19:34

#	Program:	/corina/corina34_cracker 3.40 0067  02.08.2006

@<TRIPOS>MOLECULE
ASD01816097
  65   71    0    0    0
SMALL
NO_CHARGES


@<TRIPOS>ATOM
   1 C1            -0.0167     1.3813     0.0096 C.ar    
   2 C2             0.0021    -0.0041     0.0020 C.ar    
   3 C3             1.1984    -0.6909    -0.0127 C.ar    
   4 C4             2.4015     0.0059    -0.0200 C.ar    
   5 C5             2.3790     1.4106    -0.0127 C.ar    
   6 C6             1.1663     2.0916     0.0022 C.ar    
   7 N7             3.6053    -0.6772    -0.0338 N.pl3   
   8 C8             4.7970    -0.0586    -0.0409 C.2     
   9 C9             4.9000     1.3103    -0.0349 C.2     
  10 C10            3.6670     2.1301    -0.0207 C.2     
  11 C11            5.9971     2.2729    -0.0391 C.2     
  12 N12            5.4246     3.4960    -0.0282 N.am    
  13 N13            4.0323     3.3799    -0.0174 N.2     
  14 O14            7.1915     2.0229    -0.0495 O.2     
  15 C15            3.5779    -2.1419    -0.0404 C.3     
  16 C16            3.5560    -2.6375    -1.4634 C.ar    
  17 C17            4.7388    -2.8892    -2.1327 C.ar    
  18 N18            4.7332    -3.3224    -3.3773 N.ar    
  19 C19            3.6003    -3.5338    -4.0349 C.ar    
  20 C20            2.3709    -3.3006    -3.4207 C.ar    
  21 C21            2.3476    -2.8510    -2.1124 C.ar    
  22 C22            6.1265     4.7081    -0.0278 C.ar    
  23 C23            5.8865     5.6523     0.9648 C.ar    
  24 C24            7.0677     4.9677    -1.0150 C.ar    
  25 C25            7.7583     6.1639    -1.0120 C.ar    
  26 C26            7.5140     7.1037    -0.0273 C.ar    
  27 C27            6.5819     6.8478     0.9614 C.ar    
  28 F28            4.9754     5.4022     1.9305 F       
  29 C29            3.6424    -4.0216    -5.4343 C.ar    
  30 C30            2.4691    -4.1498    -6.1726 C.ar    
  31 N31            2.5014    -4.5829    -7.4168 N.ar    
  32 C32            3.6387    -4.9106    -8.0115 C.ar    
  33 C33            4.8528    -4.8088    -7.3368 C.ar    
  34 C34            4.8635    -4.3542    -6.0336 C.ar    
  35 N35            3.6202    -5.3619    -9.3243 N.3     
  36 C36            2.2478    -5.3959    -9.8504 C.3     
  37 C37            2.2794    -5.8409   -11.3150 C.3     
  38 O38            2.9264    -7.1129   -11.4077 O.3     
  39 C39            4.2652    -7.1159   -10.9047 C.3     
  40 C40            4.2538    -6.6838    -9.4360 C.3     
  41 H41           -0.9602     1.9068     0.0170 H       
  42 H42           -0.9289    -0.5515     0.0080 H       
  43 H43            1.2004    -1.7709    -0.0181 H       
  44 H44            1.1506     3.1715     0.0077 H       
  45 H45            5.6983    -0.6536    -0.0513 H       
  46 H46            4.4654    -2.5242     0.4639 H       
  47 H47            2.6859    -2.4910     0.4797 H       
  48 H48            5.6805    -2.7283    -1.6290 H       
  49 H49            1.4494    -3.4724    -3.9572 H       
  50 H50            1.4104    -2.6619    -1.6102 H       
  51 H51            7.2599     4.2346    -1.7845 H       
  52 H52            8.4906     6.3655    -1.7798 H       
  53 H53            8.0560     8.0378    -0.0278 H       
  54 H54            6.3934     7.5839     1.7289 H       
  55 H55            1.5226    -3.8919    -5.7208 H       
  56 H56            5.7756    -5.0784    -7.8289 H       
  57 H57            5.7904    -4.2649    -5.4866 H       
  58 H58            1.6524    -6.0998    -9.2689 H       
  59 H59            1.8069    -4.4015    -9.7816 H       
  60 H60            1.2601    -5.9226   -11.6926 H       
  61 H61            2.8296    -5.1087   -11.9060 H       
  62 H62            4.6822    -8.1197   -10.9855 H       
  63 H63            4.8731    -6.4208   -11.4838 H       
  64 H64            5.2771    -6.6295    -9.0646 H       
  65 H65            3.6904    -7.4083    -8.8478 H       
@<TRIPOS>BOND
   1    1    2 ar
   2    1    6 ar
   3    1   41 1
   4    2    3 ar
   5    2   42 1
   6    3    4 ar
   7    3   43 1
   8    4    5 ar
   9    4    7 1
  10    5    6 ar
  11    5   10 1
  12    6   44 1
  13    7    8 1
  14    7   15 1
  15    8    9 2
  16    8   45 1
  17    9   10 1
  18    9   11 1
  19   10   13 2
  20   11   12 am
  21   11   14 2
  22   12   13 1
  23   12   22 1
  24   15   16 1
  25   15   46 1
  26   15   47 1
  27   16   17 ar
  28   16   21 ar
  29   17   18 ar
  30   17   48 1
  31   18   19 ar
  32   19   20 ar
  33   19   29 1
  34   20   21 ar
  35   20   49 1
  36   21   50 1
  37   22   23 ar
  38   22   24 ar
  39   23   28 1
  40   23   27 ar
  41   24   25 ar
  42   24   51 1
  43   25   26 ar
  44   25   52 1
  45   26   27 ar
  46   26   53 1
  47   27   54 1
  48   29   30 ar
  49   29   34 ar
  50   30   31 ar
  51   30   55 1
  52   31   32 ar
  53   32   33 ar
  54   32   35 1
  55   33   34 ar
  56   33   56 1
  57   34   57 1
  58   35   36 1
  59   35   40 1
  60   36   37 1
  61   36   58 1
  62   36   59 1
  63   37   38 1
  64   37   60 1
  65   37   61 1
  66   38   39 1
  67   39   40 1
  68   39   62 1
  69   39   63 1
  70   40   64 1
  71   40   65 1

#	End of record

