#	Name: ASD01814068
#	Creating user name:	WinNT
#	Creation time:	15. 06. 2019 19:31

#	Modifying user name:	WinNT
#	Modification time:	15. 06. 2019 19:31

#	Program:	/corina/corina34_cracker 3.40 0067  02.08.2006

@<TRIPOS>MOLECULE
ASD01814068
  47   51    0    0    0
SMALL
NO_CHARGES


@<TRIPOS>ATOM
   1 C1             1.1559     2.2515    -0.5137 C.ar    
   2 C2             0.7794     0.9163    -0.4986 C.ar    
   3 C3             1.7219    -0.0797    -0.3471 C.ar    
   4 C4             3.0690     0.2527    -0.2071 C.ar    
   5 C5             3.4457     1.6060    -0.2230 C.ar    
   6 C6             2.4810     2.6017    -0.3770 C.ar    
   7 N7             4.0213    -0.7325    -0.0539 N.pl3   
   8 C8             5.3257    -0.4653     0.0854 C.2     
   9 C9             5.8162     0.8252     0.0859 C.2     
  10 C10            4.8736     1.9441    -0.0741 C.2     
  11 O11            5.2563     3.1009    -0.0806 O.2     
  12 C12            7.2556     1.0774     0.2425 C.2     
  13 O13            7.7224     2.3420     0.2413 O.3     
  14 O14            8.0253     0.1455     0.3731 O.2     
  15 C15            3.5871    -2.1316    -0.0427 C.3     
  16 C16            3.4445    -2.6248    -1.4595 C.ar    
  17 C17            4.5267    -2.5715    -2.3222 C.ar    
  18 C18            4.3977    -3.0238    -3.6233 C.ar    
  19 C19            3.1822    -3.5309    -4.0624 C.ar    
  20 C20            2.0994    -3.5824    -3.1937 C.ar    
  21 C21            2.2351    -3.1349    -1.8944 C.ar    
  22 N22            3.0479    -3.9890    -5.3785 N.pl3   
  23 F23            1.3402    -1.3756    -0.3339 F       
  24 C24            2.2736    -5.0502    -5.7778 C.ar    
  25 C25            2.4281    -5.1618    -7.1731 C.ar    
  26 C26            3.3441    -4.0973    -7.5710 C.2     
  27 N27            3.6763    -3.4356    -6.4989 N.2     
  28 F28            5.7086    -2.0773    -1.8931 F       
  29 C29            1.4449    -5.9458    -5.1075 C.ar    
  30 C30            0.7914    -6.9212    -5.8061 C.ar    
  31 C31            0.9424    -7.0331    -7.1829 C.ar    
  32 C32            1.7479    -6.1690    -7.8665 C.ar    
  33 H33            0.4070     3.0197    -0.6376 H       
  34 H34           -0.2627     0.6538    -0.6063 H       
  35 H35            2.7717     3.6418    -0.3894 H       
  36 H36            6.0173    -1.2866     0.2016 H       
  37 H37            8.6766     2.4579     0.3474 H       
  38 H38            4.3271    -2.7375     0.4802 H       
  39 H39            2.6271    -2.2100     0.4676 H       
  40 H40            5.2412    -2.9822    -4.2964 H       
  41 H41            1.1528    -3.9765    -3.5332 H       
  42 H42            1.3930    -3.1751    -1.2194 H       
  43 H43            3.6831    -3.8922    -8.5757 H       
  44 H44            1.3192    -5.8699    -4.0375 H       
  45 H45            0.1499    -7.6140    -5.2819 H       
  46 H46            0.4175    -7.8113    -7.7171 H       
  47 H47            1.8599    -6.2623    -8.9366 H       
@<TRIPOS>BOND
   1    1    2 ar
   2    1    6 ar
   3    1   33 1
   4    2    3 ar
   5    2   34 1
   6    3    4 ar
   7    3   23 1
   8    4    5 ar
   9    4    7 1
  10    5    6 ar
  11    5   10 1
  12    6   35 1
  13    7    8 1
  14    7   15 1
  15    8    9 2
  16    8   36 1
  17    9   10 1
  18    9   12 1
  19   10   11 2
  20   12   13 1
  21   12   14 2
  22   13   37 1
  23   15   16 1
  24   15   38 1
  25   15   39 1
  26   16   17 ar
  27   16   21 ar
  28   17   18 ar
  29   17   28 1
  30   18   19 ar
  31   18   40 1
  32   19   20 ar
  33   19   22 1
  34   20   21 ar
  35   20   41 1
  36   21   42 1
  37   22   24 1
  38   22   27 1
  39   24   25 ar
  40   24   29 ar
  41   25   26 1
  42   25   32 ar
  43   26   27 2
  44   26   43 1
  45   29   30 ar
  46   29   44 1
  47   30   31 ar
  48   30   45 1
  49   31   32 ar
  50   31   46 1
  51   32   47 1

#	End of record

