#	Name: ASD02198358
#	Creating user name:	WinNT
#	Creation time:	15. 06. 2019 20:19

#	Modifying user name:	WinNT
#	Modification time:	15. 06. 2019 20:19

#	Program:	/corina/corina34_cracker 3.40 0067  02.08.2006

@<TRIPOS>MOLECULE
ASD02198358
  35   37    0    0    0
SMALL
NO_CHARGES


@<TRIPOS>ATOM
   1 C1            -0.0311     1.3690     0.1486 C.2     
   2 C2            -0.0280    -0.0137     0.1852 C.2     
   3 S3             1.6395     1.9116     0.2848 S.3     
   4 C4             2.1759     0.2919     0.3756 C.2     
   5 N5             1.1711    -0.5333     0.3069 N.2     
   6 N6            -1.1809    -0.7773     0.1019 N.pl3   
   7 C7            -1.1638     2.1935     0.0197 C.2     
   8 C8            -1.0273     3.6627     0.1387 C.ar    
   9 O9            -2.2580     1.6979    -0.1901 O.2     
  10 N10            3.4920    -0.0889     0.5037 N.pl3   
  11 C11           -1.9146     4.5048    -0.5322 C.ar    
  12 C12           -0.0148     4.2098     0.9267 C.ar    
  13 C13            0.1067     5.5849     1.0338 C.ar    
  14 C14           -0.7777     6.4153     0.3582 C.ar    
  15 C15           -1.7850     5.8741    -0.4188 C.ar    
  16 C16            3.8398    -1.5103     0.5724 C.3     
  17 O17            1.0917     6.1220     1.8009 O.3     
  18 C18            1.1583     7.5480     1.8661 C.3     
  19 C19            5.2486    -1.9149     0.1334 C.3     
  20 C20            4.8743    -1.9348     1.6168 C.3     
  21 H21           -2.0442    -0.3441     0.0131 H       
  22 H22           -1.1248    -1.7452     0.1324 H       
  23 H23            4.1894     0.5838     0.5485 H       
  24 H24           -2.7024     4.0853    -1.1404 H       
  25 H25            0.6722     3.5628     1.4519 H       
  26 H26           -0.6811     7.4875     0.4437 H       
  27 H27           -2.4697     6.5250    -0.9422 H       
  28 H28            3.0271    -2.2042     0.3577 H       
  29 H29            1.3141     7.9506     0.8653 H       
  30 H30            0.2250     7.9371     2.2731 H       
  31 H31            1.9867     7.8439     2.5098 H       
  32 H32            5.3626    -2.8750    -0.3698 H       
  33 H33            5.9165    -1.1235    -0.2066 H       
  34 H34            5.2960    -1.1564     2.2527 H       
  35 H35            4.7421    -2.9080     2.0895 H       
@<TRIPOS>BOND
   1    1    2 2
   2    1    3 1
   3    1    7 1
   4    2    6 1
   5    2    5 1
   6    3    4 1
   7    4    5 2
   8    4   10 1
   9    6   21 1
  10    6   22 1
  11    7    8 1
  12    7    9 2
  13    8   11 ar
  14    8   12 ar
  15   10   16 1
  16   10   23 1
  17   11   15 ar
  18   11   24 1
  19   12   13 ar
  20   12   25 1
  21   13   14 ar
  22   13   17 1
  23   14   15 ar
  24   14   26 1
  25   15   27 1
  26   16   19 1
  27   16   20 1
  28   16   28 1
  29   17   18 1
  30   18   29 1
  31   18   30 1
  32   18   31 1
  33   19   20 1
  34   19   32 1
  35   19   33 1
  36   20   34 1
  37   20   35 1

#	End of record

