#	Name: ASD01814368
#	Creating user name:	WinNT
#	Creation time:	15. 06. 2019 19:32

#	Modifying user name:	WinNT
#	Modification time:	15. 06. 2019 19:32

#	Program:	/corina/corina34_cracker 3.40 0067  02.08.2006

@<TRIPOS>MOLECULE
ASD01814368
  41   44    0    0    0
SMALL
NO_CHARGES


@<TRIPOS>ATOM
   1 C1            -0.0168     1.3869     0.0097 C.ar    
   2 C2             0.0021    -0.0041     0.0020 C.ar    
   3 C3             1.1801    -0.6897    -0.0129 C.ar    
   4 C4             2.3948     0.0129    -0.0207 C.ar    
   5 C5             2.3717     1.4290    -0.0129 C.ar    
   6 C6             1.1455     2.1015     0.0024 C.ar    
   7 C7             3.6293    -0.6694    -0.0365 C.ar    
   8 C8             4.8031     0.0063    -0.0446 C.ar    
   9 C9             4.8359     1.4095    -0.0374 C.ar    
  10 C10            3.6406     2.1511    -0.0211 C.ar    
  11 C11            6.1026     2.1526    -0.0470 C.2     
  12 N12            6.0328     3.5041    -0.0399 N.am    
  13 C13            4.8302     4.1313    -0.0241 C.2     
  14 N14            3.6961     3.4935    -0.0158 N.2     
  15 C15            3.6424    -2.1763    -0.0442 C.3     
  16 O16            7.1745     1.5748    -0.0604 O.2     
  17 C17            7.2655     4.2957    -0.0490 C.3     
  18 C18            7.2957     5.1868    -1.2951 C.3     
  19 C19            8.5124     6.1116    -1.2291 C.3     
  20 C20            8.3845     7.0519    -0.0295 C.3     
  21 C21            8.3953     6.2309     1.2643 C.3     
  22 C22            7.3097     5.1811     1.1767 C.2     
  23 Cl23           3.6305    -2.7688    -1.7470 Cl      
  24 O24            6.4988     5.0535     2.0624 O.2     
  25 H25           -0.9630     1.9076     0.0169 H       
  26 H26           -0.9305    -0.5488     0.0083 H       
  27 H27            1.1786    -1.7697    -0.0183 H       
  28 H28            1.1188     3.1811     0.0081 H       
  29 H29            5.7317    -0.5451    -0.0563 H       
  30 H30            4.8132     5.2111    -0.0182 H       
  31 H31            4.5407    -2.5344     0.4588 H       
  32 H32            2.7609    -2.5499     0.4767 H       
  33 H33            8.1283     3.6296    -0.0542 H       
  34 H34            7.3611     4.5631    -2.1866 H       
  35 H35            6.3858     5.7856    -1.3360 H       
  36 H36            9.4173     5.5129    -1.1254 H       
  37 H37            8.5710     6.6991    -2.1454 H       
  38 H38            9.2216     7.7500    -0.0240 H       
  39 H39            7.4489     7.6065    -0.1004 H       
  40 H40            9.3645     5.7463     1.3823 H       
  41 H41            8.2040     6.8853     2.1147 H       
@<TRIPOS>BOND
   1    1    2 ar
   2    1    6 ar
   3    1   25 1
   4    2    3 ar
   5    2   26 1
   6    3    4 ar
   7    3   27 1
   8    4    5 ar
   9    4    7 ar
  10    5    6 ar
  11    5   10 ar
  12    6   28 1
  13    7    8 ar
  14    7   15 1
  15    8    9 ar
  16    8   29 1
  17    9   10 ar
  18    9   11 1
  19   10   14 1
  20   11   12 am
  21   11   16 2
  22   12   13 1
  23   12   17 1
  24   13   14 2
  25   13   30 1
  26   15   23 1
  27   15   31 1
  28   15   32 1
  29   17   18 1
  30   17   22 1
  31   17   33 1
  32   18   19 1
  33   18   34 1
  34   18   35 1
  35   19   20 1
  36   19   36 1
  37   19   37 1
  38   20   21 1
  39   20   38 1
  40   20   39 1
  41   21   22 1
  42   21   40 1
  43   21   41 1
  44   22   24 2

#	End of record

