#	Name: ASD01900570
#	Creating user name:	WinNT
#	Creation time:	15. 06. 2019 19:52

#	Modifying user name:	WinNT
#	Modification time:	15. 06. 2019 19:52

#	Program:	/corina/corina34_cracker 3.40 0067  02.08.2006

@<TRIPOS>MOLECULE
ASD01900570
  42   45    0    0    0
SMALL
NO_CHARGES


@<TRIPOS>ATOM
   1 C1             0.9851     3.1570     0.7506 C.ar    
   2 C2             2.0487     3.6070     1.5300 C.ar    
   3 C3             3.2478     2.9130     1.4975 C.ar    
   4 C4             3.3417     1.7926     0.6865 C.ar    
   5 C5             2.2432     1.4020    -0.0622 C.ar    
   6 N6             1.1167     2.0791    -0.0127 N.ar    
   7 C7            -0.3052     3.8839     0.7788 C.2     
   8 O8            -0.4328     4.8685     1.4798 O.2     
   9 N9            -1.3378     3.4535     0.0271 N.am    
  10 C10           -2.5849     4.0804     0.1268 C.ar    
  11 C11           -2.6583     5.4515     0.3376 C.ar    
  12 C12           -3.8894     6.0697     0.4360 C.ar    
  13 C13           -5.0541     5.3199     0.3239 C.ar    
  14 C14           -4.9801     3.9500     0.1136 C.ar    
  15 C15           -3.7494     3.3327     0.0092 C.ar    
  16 O16           -9.4928     8.9510     0.5440 O.3     
  17 C17           -8.4811     8.4514    -0.3377 C.3     
  18 C18           -8.2943     6.9556    -0.0608 C.3     
  19 N19           -8.0936     6.8192     1.4003 N.am    
  20 C20           -8.9841     7.4488     2.3799 C.3     
  21 C21           -9.1717     8.9095     1.9347 C.3     
  22 C22           -6.9743     6.1170     1.5751 C.2     
  23 N23           -6.3051     5.9478     0.4237 N.am    
  24 C24           -6.9844     6.4572    -0.6266 C.2     
  25 S25           -6.4525     5.5049     3.0864 S.2     
  26 O26           -6.6196     6.5049    -1.7819 O.2     
  27 Cl27          -3.9819     7.7830     0.7000 Cl      
  28 H28            1.9404     4.4843     2.1504 H       
  29 H29            4.0901     3.2378     2.0903 H       
  30 H30            4.2622     1.2299     0.6384 H       
  31 H31            2.3129     0.5297    -0.6951 H       
  32 H32           -1.2164     2.7092    -0.5829 H       
  33 H33           -1.7529     6.0338     0.4250 H       
  34 H34           -5.8853     3.3674     0.0273 H       
  35 H35           -3.6922     2.2675    -0.1596 H       
  36 H36           -8.7912     8.5973    -1.3724 H       
  37 H37           -7.5440     8.9781    -0.1571 H       
  38 H38           -9.1477     6.3735    -0.4084 H       
  39 H39           -9.9461     6.9365     2.3924 H       
  40 H40           -8.5306     7.4165     3.3706 H       
  41 H41           -8.2498     9.4637     2.1108 H       
  42 H42           -9.9812     9.3621     2.5074 H       
@<TRIPOS>BOND
   1    1    2 ar
   2    1    6 ar
   3    1    7 1
   4    2    3 ar
   5    2   28 1
   6    3    4 ar
   7    3   29 1
   8    4    5 ar
   9    4   30 1
  10    5    6 ar
  11    5   31 1
  12    7    8 2
  13    7    9 am
  14    9   10 1
  15    9   32 1
  16   10   11 ar
  17   10   15 ar
  18   11   12 ar
  19   11   33 1
  20   12   13 ar
  21   12   27 1
  22   13   14 ar
  23   13   23 1
  24   14   15 ar
  25   14   34 1
  26   15   35 1
  27   16   17 1
  28   16   21 1
  29   17   18 1
  30   17   36 1
  31   17   37 1
  32   18   19 1
  33   18   24 1
  34   18   38 1
  35   19   20 1
  36   19   22 am
  37   20   21 1
  38   20   39 1
  39   20   40 1
  40   21   41 1
  41   21   42 1
  42   22   23 am
  43   22   25 2
  44   23   24 am
  45   24   26 2

#	End of record

