#	Name: ASD00431241
#	Creating user name:	WinNT
#	Creation time:	15. 06. 2019 18:35

#	Modifying user name:	WinNT
#	Modification time:	15. 06. 2019 18:35

#	Program:	/corina/corina34_cracker 3.40 0067  02.08.2006

@<TRIPOS>MOLECULE
ASD00431241
  43   45    0    0    0
SMALL
NO_CHARGES


@<TRIPOS>ATOM
   1 C1            -0.0069     1.8133     0.1649 C.3     
   2 C2            -0.0202     0.2834     0.1667 C.3     
   3 C3             1.4179     2.3033     0.1338 C.2     
   4 C4             2.1362     2.6440     1.2068 C.2     
   5 C5             3.4230     3.0659     0.9398 C.2     
   6 C6             3.7545     3.0678    -0.3692 C.2     
   7 S7             2.3862     2.5048    -1.3202 S.3     
   8 S8             6.4462     4.0332     0.0179 S.3     
   9 C9             7.3525     4.2230    -1.4189 C.2     
  10 N10            6.6405     3.8879    -2.4489 N.2     
  11 C11            5.4089     3.4813    -2.2206 C.2     
  12 C12            5.0608     3.4733    -0.9154 C.2     
  13 O13            8.6332     4.6620    -1.4735 O.3     
  14 C14            9.2565     4.6634    -2.6818 C.ar    
  15 C15            8.8103     5.5037    -3.6915 C.ar    
  16 C16            9.4439     5.5055    -4.9187 C.ar    
  17 C17           10.5260     4.6668    -5.1419 C.ar    
  18 C18           10.9719     3.8263    -4.1326 C.ar    
  19 C19           10.3423     3.8288    -2.9032 C.ar    
  20 O20           11.1494     4.6683    -6.3503 O.3     
  21 C21           10.5560     5.4548    -7.3854 C.3     
  22 C22           11.2014     6.8419    -7.4055 C.3     
  23 C23           10.7763     4.7702    -8.7359 C.3     
  24 O24           -0.7013     2.2944    -0.9877 O.3     
  25 H25           -0.4983     2.1820     1.0653 H       
  26 H26           -1.0507    -0.0710     0.1892 H       
  27 H27            0.4713    -0.0853    -0.7337 H       
  28 H28            0.5095    -0.0835     1.0458 H       
  29 H29            1.7392     2.5935     2.2099 H       
  30 H30            4.1097     3.3705     1.7157 H       
  31 H31            4.7349     3.1807    -3.0091 H       
  32 H32            7.9674     6.1562    -3.5180 H       
  33 H33            9.0966     6.1596    -5.7048 H       
  34 H34           11.8141     3.1730    -4.3066 H       
  35 H35           10.6925     3.1779    -2.1158 H       
  36 H36            9.4868     5.5542    -7.1986 H       
  37 H37           12.2706     6.7425    -7.5923 H       
  38 H38           10.7488     7.4418    -8.1950 H       
  39 H39           11.0444     7.3296    -6.4434 H       
  40 H40           10.3166     3.7820    -8.7216 H       
  41 H41           10.3238     5.3701    -9.5255 H       
  42 H42           11.8456     4.6708    -8.9227 H       
  43 H43           -1.6265     2.0170    -1.0337 H       
@<TRIPOS>BOND
   1    1    2 1
   2    1    3 1
   3    1   24 1
   4    1   25 1
   5    2   26 1
   6    2   27 1
   7    2   28 1
   8    3    4 2
   9    3    7 1
  10    4    5 1
  11    4   29 1
  12    5    6 2
  13    5   30 1
  14    6    7 1
  15    6   12 1
  16    8    9 1
  17    8   12 1
  18    9   10 2
  19    9   13 1
  20   10   11 1
  21   11   12 2
  22   11   31 1
  23   13   14 1
  24   14   15 ar
  25   14   19 ar
  26   15   16 ar
  27   15   32 1
  28   16   17 ar
  29   16   33 1
  30   17   18 ar
  31   17   20 1
  32   18   19 ar
  33   18   34 1
  34   19   35 1
  35   20   21 1
  36   21   22 1
  37   21   23 1
  38   21   36 1
  39   22   37 1
  40   22   38 1
  41   22   39 1
  42   23   40 1
  43   23   41 1
  44   23   42 1
  45   24   43 1

#	End of record

