#	Name: ASD03091156
#	Creating user name:	WinNT
#	Creation time:	15. 06. 2019 20:30

#	Modifying user name:	WinNT
#	Modification time:	15. 06. 2019 20:30

#	Program:	/corina/corina34_cracker 3.40 0067  02.08.2006

@<TRIPOS>MOLECULE
ASD03091156
  38   40    0    0    0
SMALL
NO_CHARGES


@<TRIPOS>ATOM
   1 C1             0.0678     1.4153     0.5673 C.2     
   2 C2             0.0435    -0.0320     0.2710 C.ar    
   3 C3             1.2122    -0.7099    -0.1184 C.ar    
   4 C4             1.1424    -2.0712    -0.3873 C.ar    
   5 N5             0.0029    -2.7236    -0.2812 N.ar    
   6 C6            -1.1197    -2.1234     0.0823 C.ar    
   7 C7            -1.1411    -0.7672     0.3755 C.ar    
   8 O8             1.1243     2.0165     0.5749 O.2     
   9 N9            -1.0820     2.0701     0.8238 N.am    
  10 N10           -4.6478    -4.3760    -0.7999 N.3     
  11 C11           -4.7005    -2.9518    -0.4365 C.3     
  12 C12           -3.3509    -2.2889    -0.6642 C.3     
  13 N13           -2.2956    -2.8654     0.1774 N.3     
  14 C14           -2.0609    -4.2722    -0.1772 C.3     
  15 C15           -2.8793    -5.1893     0.7192 C.3     
  16 C16           -4.3587    -5.1881     0.3907 C.3     
  17 C17           -3.8128    -4.7178    -1.9314 C.3     
  18 C18           -2.3394    -4.4657    -1.6566 C.3     
  19 N19            2.4203    -0.0275    -0.2333 N.pl3   
  20 H20            2.0341    -2.6015    -0.6875 H       
  21 H21           -2.0600    -0.2860     0.6762 H       
  22 H22           -1.9254     1.5912     0.8138 H       
  23 H23           -1.0660     3.0203     1.0183 H       
  24 H24           -5.4531    -2.4530    -1.0471 H       
  25 H25           -4.9731    -2.8593     0.6148 H       
  26 H26           -3.0717    -2.4073    -1.7112 H       
  27 H27           -3.4380    -1.2253    -0.4422 H       
  28 H28           -1.0058    -4.4901    -0.0114 H       
  29 H29           -2.4998    -6.2061     0.6185 H       
  30 H30           -2.7509    -4.8721     1.7541 H       
  31 H31           -4.9113    -4.7849     1.2393 H       
  32 H32           -4.6839    -6.2127     0.2102 H       
  33 H33           -3.9528    -5.7724    -2.1684 H       
  34 H34           -4.1194    -4.1206    -2.7902 H       
  35 H35           -2.0262    -3.5718    -2.1960 H       
  36 H36           -1.7611    -5.3162    -2.0177 H       
  37 H37            2.4261     0.9399    -0.3037 H       
  38 H38            3.2562    -0.5195    -0.2430 H       
@<TRIPOS>BOND
   1    1    2 1
   2    1    8 2
   3    1    9 am
   4    2    3 ar
   5    2    7 ar
   6    3    4 ar
   7    3   19 1
   8    4    5 ar
   9    4   20 1
  10    5    6 ar
  11    6    7 ar
  12    6   13 1
  13    7   21 1
  14    9   22 1
  15    9   23 1
  16   10   11 1
  17   10   16 1
  18   10   17 1
  19   11   12 1
  20   11   24 1
  21   11   25 1
  22   12   13 1
  23   12   26 1
  24   12   27 1
  25   13   14 1
  26   14   15 1
  27   14   18 1
  28   14   28 1
  29   15   16 1
  30   15   29 1
  31   15   30 1
  32   16   31 1
  33   16   32 1
  34   17   18 1
  35   17   33 1
  36   17   34 1
  37   18   35 1
  38   18   36 1
  39   19   37 1
  40   19   38 1

#	End of record

