#	Name: ASD03731232
#	Creating user name:	WinNT
#	Creation time:	15. 06. 2019 20:45

#	Modifying user name:	WinNT
#	Modification time:	15. 06. 2019 20:45

#	Program:	/corina/corina34_cracker 3.40 0067  02.08.2006

@<TRIPOS>MOLECULE
ASD03731232
  63   68    0    0    0
SMALL
NO_CHARGES


@<TRIPOS>ATOM
   1 C1             0.3019     0.7971    -1.8312 C.2     
   2 C2             0.1577    -0.3313    -0.8943 C.ar    
   3 C3             1.2459    -0.7392    -0.1072 C.ar    
   4 C4             1.0976    -1.8035     0.7715 C.ar    
   5 C5            -0.1149    -2.4565     0.8688 C.ar    
   6 C6            -1.1910    -2.0570     0.0931 C.ar    
   7 C7            -1.0647    -0.9982    -0.7800 C.ar    
   8 O8             1.3915     1.3055    -2.0068 O.2     
   9 O9            -0.7736     1.2614    -2.4973 O.3     
  10 N10            2.4682    -0.0797    -0.2075 N.am    
  11 C11            3.6163    -0.7857    -0.2143 C.2     
  12 O12            3.5911    -1.9888    -0.0410 O.2     
  13 N13            4.7922    -0.1580    -0.4131 N.am    
  14 C14            6.0401    -0.9255    -0.4204 C.3     
  15 C15            7.2185     0.0194    -0.6645 C.3     
  16 O16            8.8103    -6.8624    -2.0055 O.3     
  17 C17            9.7397    -7.9475    -2.1837 C.3     
  18 O18           10.8360    -7.3456    -2.8970 O.3     
  19 C19           10.8171    -6.0250    -2.5500 C.ar    
  20 C20            9.5708    -5.7282    -2.0028 C.ar    
  21 C21           11.7784    -5.0361    -2.6575 C.ar    
  22 C22           11.5098    -3.7414    -2.2237 C.ar    
  23 C23           10.2584    -3.4552    -1.6865 C.ar    
  24 C24            9.2999    -4.4403    -1.5723 C.ar    
  25 O25           12.3117    -2.6381    -2.2232 O.3     
  26 C26           10.2644    -1.9898    -1.3422 C.3     
  27 C27           11.4963    -1.4582    -2.0874 C.3     
  28 N28            8.4664    -0.7480    -0.6718 N.am    
  29 C29            9.0048    -1.2984    -1.7783 C.2     
  30 C30           10.3581    -1.7509     0.1356 C.ar    
  31 C31           11.2674    -2.1170     1.1028 C.ar    
  32 C32           11.0735    -1.7321     2.4174 C.ar    
  33 C33            9.9641    -0.9797     2.7578 C.ar    
  34 C34            9.0499    -0.6113     1.7928 C.ar    
  35 C35            9.2373    -0.9939     0.4669 C.ar    
  36 O36            8.5594    -1.2454    -2.9051 O.2     
  37 C37           -0.5574     2.3751    -3.4036 C.3     
  38 C38           -1.8829     2.7604    -4.0634 C.3     
  39 H39            1.9317    -2.1213     1.3795 H       
  40 H40           -0.2251    -3.2842     1.5537 H       
  41 H41           -2.1351    -2.5748     0.1766 H       
  42 H42           -1.9081    -0.6877    -1.3789 H       
  43 H43            2.4935     0.8878    -0.2726 H       
  44 H44            4.8124     0.8018    -0.5513 H       
  45 H45            6.1664    -1.4229     0.5412 H       
  46 H46            6.0028    -1.6722    -1.2136 H       
  47 H47            7.0922     0.5168    -1.6262 H       
  48 H48            7.2558     0.7661     0.1286 H       
  49 H49           10.0737    -8.3281    -1.2184 H       
  50 H50            9.2892    -8.7443    -2.7755 H       
  51 H51           12.7439    -5.2704    -3.0810 H       
  52 H52            8.3354    -4.2066    -1.1462 H       
  53 H53           12.0089    -0.6994    -1.4961 H       
  54 H54           11.2177    -1.0656    -3.0653 H       
  55 H55           12.1329    -2.7048     0.8347 H       
  56 H56           11.7869    -2.0183     3.1761 H       
  57 H57            9.8126    -0.6793     3.7841 H       
  58 H58            8.1858    -0.0241     2.0665 H       
  59 H59           -0.1679     3.2269    -2.8461 H       
  60 H60            0.1598     2.0847    -4.1714 H       
  61 H61           -2.2724     1.9086    -4.6209 H       
  62 H62           -2.6001     3.0507    -3.2956 H       
  63 H63           -1.7206     3.5964    -4.7437 H       
@<TRIPOS>BOND
   1    1    2 1
   2    1    8 2
   3    1    9 1
   4    2    3 ar
   5    2    7 ar
   6    3    4 ar
   7    3   10 1
   8    4    5 ar
   9    4   39 1
  10    5    6 ar
  11    5   40 1
  12    6    7 ar
  13    6   41 1
  14    7   42 1
  15    9   37 1
  16   10   11 am
  17   10   43 1
  18   11   12 2
  19   11   13 am
  20   13   14 1
  21   13   44 1
  22   14   15 1
  23   14   45 1
  24   14   46 1
  25   15   28 1
  26   15   47 1
  27   15   48 1
  28   16   17 1
  29   16   20 1
  30   17   18 1
  31   17   49 1
  32   17   50 1
  33   18   19 1
  34   19   20 ar
  35   19   21 ar
  36   20   24 ar
  37   21   22 ar
  38   21   51 1
  39   22   23 ar
  40   22   25 1
  41   23   24 ar
  42   23   26 1
  43   24   52 1
  44   25   27 1
  45   26   27 1
  46   26   29 1
  47   26   30 1
  48   27   53 1
  49   27   54 1
  50   28   29 am
  51   28   35 1
  52   29   36 2
  53   30   31 ar
  54   30   35 ar
  55   31   32 ar
  56   31   55 1
  57   32   33 ar
  58   32   56 1
  59   33   34 ar
  60   33   57 1
  61   34   35 ar
  62   34   58 1
  63   37   38 1
  64   37   59 1
  65   37   60 1
  66   38   61 1
  67   38   62 1
  68   38   63 1

#	End of record

