#	Name: ASD01913424
#	Creating user name:	WinNT
#	Creation time:	15. 06. 2019 20:01

#	Modifying user name:	WinNT
#	Modification time:	15. 06. 2019 20:01

#	Program:	/corina/corina34_cracker 3.40 0067  02.08.2006

@<TRIPOS>MOLECULE
ASD01913424
  38   40    0    0    0
SMALL
NO_CHARGES


@<TRIPOS>ATOM
   1 C1            -1.9621    -0.7281    -2.1792 C.ar    
   2 C2            -1.4558    -0.0511    -1.0722 C.ar    
   3 C3            -1.4802     1.3416    -1.0834 C.ar    
   4 N4            -1.9795     1.9659    -2.1370 N.ar    
   5 C5            -2.4491     1.2885    -3.1654 C.ar    
   6 N6            -2.4440    -0.0292    -3.1933 N.ar    
   7 C7            -1.0323    -2.1440     0.0677 C.ar    
   8 C8             0.1188    -2.9210     0.0151 C.ar    
   9 C9             0.0303    -4.3008     0.0661 C.ar    
  10 C10           -1.2025    -4.9145     0.1702 C.ar    
  11 C11           -2.3644    -4.1421     0.2241 C.ar    
  12 C12           -2.2749    -2.7513     0.1722 C.ar    
  13 C13           -3.6853    -4.7965     0.3350 C.2     
  14 N14           -3.7693    -6.1407     0.3842 N.am    
  15 C15           -5.0019    -6.7543     0.5975 C.ar    
  16 O16           -4.6955    -4.1223     0.3818 O.2     
  17 N17           -0.9374    -0.7507     0.0211 N.pl3   
  18 Cl18           1.4733    -5.2635    -0.0013 Cl      
  19 N19           -6.1014    -6.0185     0.6434 N.ar    
  20 C20           -7.2887    -6.5587     0.8432 C.ar    
  21 C21           -7.4270    -7.9214     1.0129 C.ar    
  22 C22           -6.2973    -8.7301     0.9717 C.ar    
  23 C23           -5.0662    -8.1339     0.7546 C.ar    
  24 Cl24          -6.4274   -10.4486     1.1805 Cl      
  25 C25           -0.2946    -0.0231     1.1183 C.3     
  26 H26           -1.9570    -1.8076    -2.2109 H       
  27 H27           -1.0973     1.9031    -0.2440 H       
  28 H28           -2.8500     1.8291    -4.0101 H       
  29 H29            1.0854    -2.4463    -0.0663 H       
  30 H30           -1.2678    -5.9918     0.2094 H       
  31 H31           -3.1704    -2.1490     0.2139 H       
  32 H32           -2.9718    -6.6811     0.2710 H       
  33 H33           -8.1635    -5.9262     0.8748 H       
  34 H34           -8.4027    -8.3547     1.1763 H       
  35 H35           -4.1676    -8.7318     0.7163 H       
  36 H36           -1.0410     0.2350     1.8695 H       
  37 H37            0.4734    -0.6511     1.5698 H       
  38 H38            0.1620     0.8880     0.7317 H       
@<TRIPOS>BOND
   1    1    2 ar
   2    1    6 ar
   3    1   26 1
   4    2    3 ar
   5    2   17 1
   6    3    4 ar
   7    3   27 1
   8    4    5 ar
   9    5    6 ar
  10    5   28 1
  11    7    8 ar
  12    7   12 ar
  13    7   17 1
  14    8    9 ar
  15    8   29 1
  16    9   10 ar
  17    9   18 1
  18   10   11 ar
  19   10   30 1
  20   11   12 ar
  21   11   13 1
  22   12   31 1
  23   13   14 am
  24   13   16 2
  25   14   15 1
  26   14   32 1
  27   15   19 ar
  28   15   23 ar
  29   17   25 1
  30   19   20 ar
  31   20   21 ar
  32   20   33 1
  33   21   22 ar
  34   21   34 1
  35   22   23 ar
  36   22   24 1
  37   23   35 1
  38   25   36 1
  39   25   37 1
  40   25   38 1

#	End of record

