#	Name: ASD08070332
#	Creating user name:	WinNT
#	Creation time:	15. 06. 2019 21:14

#	Modifying user name:	WinNT
#	Modification time:	15. 06. 2019 21:14

#	Program:	/corina/corina34_cracker 3.40 0067  02.08.2006

@<TRIPOS>MOLECULE
ASD08070332
  43   44    0    0    0
SMALL
NO_CHARGES


@<TRIPOS>ATOM
   1 O1            -0.0270     1.5713    -0.3779 O.3     
   2 C2            -0.1284     0.1879     0.0075 C.3     
   3 O3             1.1778    -0.3450    -0.2804 O.3     
   4 C4             2.0335     0.7140    -0.1772 C.ar    
   5 C5             1.2903     1.8940    -0.2372 C.ar    
   6 C6             1.9296     3.1233    -0.1535 C.ar    
   7 C7             3.2990     3.1847    -0.0119 C.ar    
   8 C8             4.0484     2.0077     0.0481 C.ar    
   9 C9             3.4059     0.7693    -0.0353 C.ar    
  10 C10            5.5153     2.0714     0.1995 C.2     
  11 O11            6.0615     3.1420     0.3836 O.2     
  12 N12            6.2492     0.9429     0.1336 N.am    
  13 C13            3.9880     4.5220     0.0779 C.3     
  14 C14            8.2037    -1.9519     2.6976 C.3     
  15 C15            7.6839    -0.6039     2.1942 C.3     
  16 C16            8.2250    -0.3418     0.7873 C.3     
  17 C17            7.7051     1.0062     0.2838 C.3     
  18 C18            8.3440     1.3262    -1.0691 C.3     
  19 C19            7.9217     2.7279    -1.5138 C.3     
  20 C20            8.5606     3.0478    -2.8667 C.3     
  21 H21           -0.3510     0.1021     1.0711 H       
  22 H22           -0.8886    -0.3202    -0.5859 H       
  23 H23            1.3520     4.0347    -0.2000 H       
  24 H24            3.9820    -0.1430     0.0110 H       
  25 H25            5.8135     0.0889    -0.0133 H       
  26 H26            4.1573     4.7739     1.1248 H       
  27 H27            4.9441     4.4738    -0.4434 H       
  28 H28            3.3610     5.2854    -0.3827 H       
  29 H29            7.8700    -2.7435     2.0267 H       
  30 H30            9.2932    -1.9340     2.7249 H       
  31 H31            7.8182    -2.1386     3.7000 H       
  32 H32            6.5944    -0.6218     2.1670 H       
  33 H33            8.0176     0.1877     2.8651 H       
  34 H34            9.3145    -0.3239     0.8145 H       
  35 H35            7.8913    -1.1334     0.1164 H       
  36 H36            7.9629     1.7857     1.0008 H       
  37 H37            9.4294     1.2858    -0.9770 H       
  38 H38            8.0147     0.5959    -1.8082 H       
  39 H39            6.8364     2.7682    -1.6059 H       
  40 H40            8.2510     3.4582    -0.7747 H       
  41 H41            8.2313     2.3175    -3.6058 H       
  42 H42            8.2597     4.0464    -3.1835 H       
  43 H43            9.6460     3.0075    -2.7746 H       
@<TRIPOS>BOND
   1    1    2 1
   2    1    5 1
   3    2    3 1
   4    2   21 1
   5    2   22 1
   6    3    4 1
   7    4    5 ar
   8    4    9 ar
   9    5    6 ar
  10    6    7 ar
  11    6   23 1
  12    7    8 ar
  13    7   13 1
  14    8    9 ar
  15    8   10 1
  16    9   24 1
  17   10   11 2
  18   10   12 am
  19   12   17 1
  20   12   25 1
  21   13   26 1
  22   13   27 1
  23   13   28 1
  24   14   15 1
  25   14   29 1
  26   14   30 1
  27   14   31 1
  28   15   16 1
  29   15   32 1
  30   15   33 1
  31   16   17 1
  32   16   34 1
  33   16   35 1
  34   17   18 1
  35   17   36 1
  36   18   19 1
  37   18   37 1
  38   18   38 1
  39   19   20 1
  40   19   39 1
  41   19   40 1
  42   20   41 1
  43   20   42 1
  44   20   43 1

#	End of record

