#	Name: ASD01810181
#	Creating user name:	WinNT
#	Creation time:	15. 06. 2019 19:24

#	Modifying user name:	WinNT
#	Modification time:	15. 06. 2019 19:24

#	Program:	/corina/corina34_cracker 3.40 0067  02.08.2006

@<TRIPOS>MOLECULE
ASD01810181
  37   39    0    0    0
SMALL
NO_CHARGES


@<TRIPOS>ATOM
   1 C1             0.1379     1.1596     0.3838 C.ar    
   2 C2             0.2405    -0.2237     0.3579 C.ar    
   3 C3             1.4672    -0.8362     0.2053 C.ar    
   4 C4             2.6200    -0.0622     0.0752 C.ar    
   5 C5             2.5113     1.3381     0.1020 C.ar    
   6 C6             1.2639     1.9428     0.2570 C.ar    
   7 N7             3.8524    -0.6613    -0.0769 N.pl3   
   8 C8             4.9876     0.0368    -0.2042 C.2     
   9 C9             5.0076     1.4171    -0.1925 C.2     
  10 C10            3.7380     2.1451    -0.0367 C.2     
  11 O11            3.7022     3.3630    -0.0203 O.2     
  12 C12            6.2752     2.1473    -0.3341 C.2     
  13 O13            6.2816     3.4953    -0.3211 O.3     
  14 O14            7.3178     1.5358    -0.4630 O.2     
  15 C15            3.9227    -2.1245    -0.0997 C.3     
  16 C16            3.6052    -2.6211    -1.4866 C.ar    
  17 C17            3.4121    -1.7194    -2.5161 C.ar    
  18 C18            3.1207    -2.1751    -3.7885 C.ar    
  19 C19            3.0230    -3.5322    -4.0311 C.ar    
  20 C20            3.2170    -4.4342    -3.0014 C.ar    
  21 C21            3.5126    -3.9789    -1.7303 C.ar    
  22 F22            1.5517    -2.1844     0.1824 F       
  23 C23            3.7241    -4.9620    -0.6080 C.3     
  24 F24            3.6340    -6.2659    -1.1070 F       
  25 F25            4.9903    -4.7639    -0.0469 F       
  26 F26            2.7444    -4.7690     0.3719 F       
  27 H27           -0.8300     1.6246     0.4994 H       
  28 H28           -0.6493    -0.8274     0.4586 H       
  29 H29            1.1813     3.0195     0.2771 H       
  30 H30            5.9190    -0.4978    -0.3196 H       
  31 H31            7.1394     3.9312    -0.4175 H       
  32 H32            4.9265    -2.4444     0.1798 H       
  33 H33            3.2009    -2.5340     0.6070 H       
  34 H34            3.4885    -0.6589    -2.3266 H       
  35 H35            2.9691    -1.4705    -4.5929 H       
  36 H36            2.7947    -3.8881    -5.0249 H       
  37 H37            3.1403    -5.4947    -3.1908 H       
@<TRIPOS>BOND
   1    1    2 ar
   2    1    6 ar
   3    1   27 1
   4    2    3 ar
   5    2   28 1
   6    3    4 ar
   7    3   22 1
   8    4    5 ar
   9    4    7 1
  10    5    6 ar
  11    5   10 1
  12    6   29 1
  13    7    8 1
  14    7   15 1
  15    8    9 2
  16    8   30 1
  17    9   10 1
  18    9   12 1
  19   10   11 2
  20   12   13 1
  21   12   14 2
  22   13   31 1
  23   15   16 1
  24   15   32 1
  25   15   33 1
  26   16   17 ar
  27   16   21 ar
  28   17   18 ar
  29   17   34 1
  30   18   19 ar
  31   18   35 1
  32   19   20 ar
  33   19   36 1
  34   20   21 ar
  35   20   37 1
  36   21   23 1
  37   23   24 1
  38   23   25 1
  39   23   26 1

#	End of record

