#	Name: ASD01882579
#	Creating user name:	WinNT
#	Creation time:	15. 06. 2019 19:44

#	Modifying user name:	WinNT
#	Modification time:	15. 06. 2019 19:44

#	Program:	/corina/corina34_cracker 3.40 0067  02.08.2006

@<TRIPOS>MOLECULE
ASD01882579
  57   59    0    0    0
SMALL
NO_CHARGES


@<TRIPOS>ATOM
   1 C1             0.0176     1.4238     0.1479 C.2     
   2 C2             0.0987     0.0550     0.4681 C.2     
   3 C3             1.2817    -0.5963     0.3048 C.2     
   4 C4             2.4013     0.1021    -0.1789 C.2     
   5 C5             2.3087     1.4141    -0.4812 C.2     
   6 N6             1.1288     2.0795    -0.3227 N.pl3   
   7 N7            -0.5248     3.4530    -0.2129 N.2     
   8 N8            -0.9622     2.3120     0.1902 N.2     
   9 C9             0.7394     3.3655    -0.5371 C.2     
  10 C10           -1.1108    -0.6797     0.9861 C.3     
  11 F11           -0.9721    -0.8947     2.3615 F       
  12 F12           -2.2582     0.0840     0.7468 F       
  13 F13           -1.2248    -1.9106     0.3309 F       
  14 C14            1.3914    -2.0611     0.6416 C.3     
  15 N15            1.6391    -2.8287    -0.5862 N.3     
  16 C16            2.1150    -4.1823    -0.2736 C.3     
  17 C17            2.5000    -4.9008    -1.5688 C.3     
  18 C18            1.2796    -4.9690    -2.4910 C.3     
  19 C19            0.7744    -3.5492    -2.7619 C.3     
  20 C20            0.4394    -2.8698    -1.4321 C.3     
  21 C21            1.6676    -5.6223    -3.7924 C.ar    
  22 C22            1.0399    -6.7859    -4.1959 C.ar    
  23 C23            1.3959    -7.3852    -5.3896 C.ar    
  24 C24            2.3793    -6.8206    -6.1801 C.ar    
  25 C25            3.0064    -5.6565    -5.7772 C.ar    
  26 C26            2.6474    -5.0548    -4.5855 C.ar    
  27 C27            1.6057     4.4841    -1.0559 C.3     
  28 O28            1.5314     4.5218    -2.4825 O.3     
  29 C29            2.3212     5.5527    -3.0786 C.3     
  30 C30            2.1660     5.4989    -4.5998 C.3     
  31 H31            3.3411    -0.4139    -0.3090 H       
  32 H32            3.1755     1.9411    -0.8518 H       
  33 H33            2.2163    -2.2130     1.3377 H       
  34 H34            0.4621    -2.3991     1.1002 H       
  35 H35            2.9855    -4.1194     0.3793 H       
  36 H36            1.3237    -4.7385     0.2289 H       
  37 H37            3.3008    -4.3526    -2.0649 H       
  38 H38            2.8385    -5.9109    -1.3378 H       
  39 H39            0.4923    -5.5504    -2.0111 H       
  40 H40            1.5481    -2.9797    -3.2768 H       
  41 H41           -0.1200    -3.5935    -3.3833 H       
  42 H42           -0.3440    -3.4321    -0.9242 H       
  43 H43            0.0930    -1.8537    -1.6206 H       
  44 H44            0.2715    -7.2271    -3.5782 H       
  45 H45            0.9059    -8.2947    -5.7044 H       
  46 H46            2.6580    -7.2892    -7.1124 H       
  47 H47            3.7750    -5.2155    -6.3946 H       
  48 H48            3.1348    -4.1433    -4.2724 H       
  49 H49            1.2564     5.4330    -0.6487 H       
  50 H50            2.6383     4.3157    -0.7502 H       
  51 H51            1.9868     6.5237    -2.7134 H       
  52 H52            3.3686     5.4065    -2.8149 H       
  53 H53            1.1185     5.6452    -4.8635 H       
  54 H54            2.7684     6.2853    -5.0545 H       
  55 H55            2.5004     4.5279    -4.9650 H       
  56 Cl56           8.7750    11.5237     7.3615 Cl      
  57 H57            8.7750    12.8937     7.3615 H       
@<TRIPOS>BOND
   1    1    2 1
   2    1    6 1
   3    1    8 2
   4    2    3 2
   5    2   10 1
   6    3    4 1
   7    3   14 1
   8    4    5 2
   9    4   31 1
  10    5    6 1
  11    5   32 1
  12    6    9 1
  13    7    8 1
  14    7    9 2
  15    9   27 1
  16   10   11 1
  17   10   12 1
  18   10   13 1
  19   14   15 1
  20   14   33 1
  21   14   34 1
  22   15   16 1
  23   15   20 1
  24   16   17 1
  25   16   35 1
  26   16   36 1
  27   17   18 1
  28   17   37 1
  29   17   38 1
  30   18   19 1
  31   18   21 1
  32   18   39 1
  33   19   20 1
  34   19   40 1
  35   19   41 1
  36   20   42 1
  37   20   43 1
  38   21   22 ar
  39   21   26 ar
  40   22   23 ar
  41   22   44 1
  42   23   24 ar
  43   23   45 1
  44   24   25 ar
  45   24   46 1
  46   25   26 ar
  47   25   47 1
  48   26   48 1
  49   27   28 1
  50   27   49 1
  51   27   50 1
  52   28   29 1
  53   29   30 1
  54   29   51 1
  55   29   52 1
  56   30   53 1
  57   30   54 1
  58   30   55 1
  59   56   57 1

#	End of record

