#	Name: ASD04590387
#	Creating user name:	WinNT
#	Creation time:	15. 06. 2019 20:50

#	Modifying user name:	WinNT
#	Modification time:	15. 06. 2019 20:50

#	Program:	/corina/corina34_cracker 3.40 0067  02.08.2006

@<TRIPOS>MOLECULE
ASD04590387
  36   39    0    0    0
SMALL
NO_CHARGES


@<TRIPOS>ATOM
   1 C1            -0.0168     1.3852     0.0097 C.ar    
   2 C2             0.0021    -0.0041     0.0020 C.ar    
   3 C3             2.4060     0.0260    -0.0204 C.ar    
   4 C4             2.3779     1.4309    -0.0130 C.ar    
   5 C5             1.1621     2.1003     0.0022 C.ar    
   6 N6             3.7089    -0.3494    -0.0354 N.2     
   7 C7             4.4740     0.7150    -0.0378 C.2     
   8 N8             3.6980     1.8431    -0.0242 N.pl3   
   9 C9             5.9515     0.6997    -0.0527 C.2     
  10 C10            6.7708    -0.4527    -0.0673 C.2     
  11 C11            8.0623    -0.0414    -0.0781 C.2     
  12 N12            8.0668     1.3175    -0.0706 N.pl3   
  13 N13            6.7375     1.7584    -0.0606 N.2     
  14 N14            6.3260    -1.7847    -0.0695 N.am    
  15 C15            7.2197    -2.7935    -0.0841 C.2     
  16 O16            8.4112    -2.5503    -0.0955 O.2     
  17 C17            6.7524    -4.1929    -0.0864 C.ar    
  18 C18            1.2007    -0.6870    -0.0127 C.ar    
  19 C19            6.1050    -6.1775     1.1104 C.ar    
  20 C20            5.8751    -6.8236    -0.0906 C.ar    
  21 C21            6.0852    -6.1670    -1.2896 C.ar    
  22 C22            6.5224    -4.8558    -1.2968 C.ar    
  23 F23            6.7266    -4.2161    -2.4691 F       
  24 C24            6.5424    -4.8664     1.1218 C.ar    
  25 F25            6.7669    -4.2372     2.2961 F       
  26 F26            1.2117    -2.0380    -0.0192 F       
  27 F27           -1.1613    -0.6908     0.0095 F       
  28 H28           -0.9614     1.9086     0.0170 H       
  29 H29            1.1395     3.1801     0.0079 H       
  30 H30            4.0148     2.7598    -0.0234 H       
  31 H31            8.9331    -0.6802    -0.0900 H       
  32 H32            8.8542     1.8840    -0.0752 H       
  33 H33            5.3757    -1.9788    -0.0604 H       
  34 H34            5.9384    -6.6976     2.0422 H       
  35 H35            5.5337    -7.8482    -0.0923 H       
  36 H36            5.9035    -6.6790    -2.2230 H       
@<TRIPOS>BOND
   1    1    2 ar
   2    1    5 ar
   3    1   28 1
   4    2   18 ar
   5    2   27 1
   6    3    4 ar
   7    3    6 1
   8    3   18 ar
   9    4    5 ar
  10    4    8 1
  11    5   29 1
  12    6    7 2
  13    7    8 1
  14    7    9 1
  15    8   30 1
  16    9   10 1
  17    9   13 2
  18   10   11 2
  19   10   14 1
  20   11   12 1
  21   11   31 1
  22   12   13 1
  23   12   32 1
  24   14   15 am
  25   14   33 1
  26   15   16 2
  27   15   17 1
  28   17   24 ar
  29   17   22 ar
  30   18   26 1
  31   19   20 ar
  32   19   24 ar
  33   19   34 1
  34   20   21 ar
  35   20   35 1
  36   21   22 ar
  37   21   36 1
  38   22   23 1
  39   24   25 1

#	End of record

