#	Name: ASD03331297
#	Creating user name:	WinNT
#	Creation time:	15. 06. 2019 20:38

#	Modifying user name:	WinNT
#	Modification time:	15. 06. 2019 20:38

#	Program:	/corina/corina34_cracker 3.40 0067  02.08.2006

@<TRIPOS>MOLECULE
ASD03331297
  53   55    0    0    0
SMALL
NO_CHARGES


@<TRIPOS>ATOM
   1 N1             0.1911     1.0010    -0.2862 N.2     
   2 N2             0.0734    -0.3963    -0.2165 N.am    
   3 C3             1.3223    -0.9175    -0.2126 C.2     
   4 C4             2.2043     0.1102    -0.2755 C.2     
   5 C5             1.4728     1.3063    -0.3219 C.2     
   6 C6             3.6996    -0.0866    -0.2871 C.3     
   7 C7             1.7513    -2.3629    -0.1538 C.3     
   8 C8             3.2272    -2.4296    -0.5733 C.3     
   9 O9             3.9722    -1.4316     0.1298 O.3     
  10 C10           -1.0783    -1.0943    -0.1626 C.2     
  11 O11           -1.0512    -2.3075    -0.1039 O.2     
  12 N12           -2.2601    -0.4464    -0.1738 N.am    
  13 C13           -4.6201    -0.3947    -0.7368 C.2     
  14 C14           -3.5120    -1.2051    -0.1152 C.3     
  15 C15           -3.8577    -1.5066     1.3445 C.3     
  16 C16           -3.9108    -0.1987     2.1366 C.3     
  17 O17           -4.5694     0.8169    -0.7177 O.2     
  18 N18           -5.6674    -1.0163    -1.3140 N.am    
  19 C19           -6.7965    -0.2321    -1.8203 C.3     
  20 C20           -5.2198    -2.2001     1.4131 C.3     
  21 C21           -2.7883    -2.4225     1.9432 C.3     
  22 C22            2.0419     2.6745    -0.3978 C.ar    
  23 C23            1.3862     3.6644    -1.1275 C.ar    
  24 C24            1.9199     4.9368    -1.1953 C.ar    
  25 C25            3.1071     5.2284    -0.5383 C.ar    
  26 C26            3.7605     4.2464     0.1869 C.ar    
  27 C27            3.2302     2.9744     0.2649 C.ar    
  28 F28            3.6268     6.4736    -0.6069 F       
  29 F29            1.2860     5.8979    -1.9022 F       
  30 H30            4.0844     0.0721    -1.2945 H       
  31 H31            4.1690     0.6152     0.4023 H       
  32 H32            1.6387    -2.7406     0.8625 H       
  33 H33            1.1454    -2.9563    -0.8385 H       
  34 H34            3.6276    -3.4153    -0.3363 H       
  35 H35            3.3078    -2.2541    -1.6461 H       
  36 H36           -2.2818     0.5222    -0.2206 H       
  37 H37           -3.3956    -2.1409    -0.6618 H       
  38 H38           -4.6727     0.4538     1.7101 H       
  39 H39           -4.1572    -0.4135     3.1765 H       
  40 H40           -2.9405     0.2953     2.0877 H       
  41 H41           -5.6735    -1.9830    -1.3942 H       
  42 H42           -7.5414    -0.9026    -2.2490 H       
  43 H43           -7.2435     0.3316    -1.0014 H       
  44 H44           -6.4447     0.4581    -2.5871 H       
  45 H45           -5.1679    -3.1553     0.8906 H       
  46 H46           -5.4887    -2.3704     2.4556 H       
  47 H47           -5.9732    -1.5687     0.9421 H       
  48 H48           -1.8180    -1.9284     1.8943 H       
  49 H49           -3.0347    -2.6373     2.9830 H       
  50 H50           -2.7505    -3.3542     1.3788 H       
  51 H51            0.4628     3.4371    -1.6393 H       
  52 H52            4.6843     4.4774     0.6964 H       
  53 H53            3.7386     2.2109     0.8350 H       
@<TRIPOS>BOND
   1    1    2 1
   2    1    5 2
   3    2    3 1
   4    2   10 am
   5    3    4 2
   6    3    7 1
   7    4    5 1
   8    4    6 1
   9    5   22 1
  10    6    9 1
  11    6   30 1
  12    6   31 1
  13    7    8 1
  14    7   32 1
  15    7   33 1
  16    8    9 1
  17    8   34 1
  18    8   35 1
  19   10   11 2
  20   10   12 am
  21   12   14 1
  22   12   36 1
  23   13   17 2
  24   13   18 am
  25   13   14 1
  26   14   15 1
  27   14   37 1
  28   15   16 1
  29   15   20 1
  30   15   21 1
  31   16   38 1
  32   16   39 1
  33   16   40 1
  34   18   19 1
  35   18   41 1
  36   19   42 1
  37   19   43 1
  38   19   44 1
  39   20   45 1
  40   20   46 1
  41   20   47 1
  42   21   48 1
  43   21   49 1
  44   21   50 1
  45   22   23 ar
  46   22   27 ar
  47   23   24 ar
  48   23   51 1
  49   24   25 ar
  50   24   29 1
  51   25   26 ar
  52   25   28 1
  53   26   27 ar
  54   26   52 1
  55   27   53 1

#	End of record

