#	Name: ASD04880069
#	Creating user name:	WinNT
#	Creation time:	15. 06. 2019 20:52

#	Modifying user name:	WinNT
#	Modification time:	15. 06. 2019 20:52

#	Program:	/corina/corina34_cracker 3.40 0067  02.08.2006

@<TRIPOS>MOLECULE
ASD04880069
  46   49    0    0    0
SMALL
NO_CHARGES


@<TRIPOS>ATOM
   1 C1             0.0516     1.1948    -0.0574 C.2     
   2 O2             0.0390    -0.0066     0.1319 O.2     
   3 O3             4.8386     4.0883    -0.1571 O.3     
   4 C4             4.5005     4.9660    -1.2470 C.3     
   5 O5             3.5094     4.2285    -1.9865 O.3     
   6 C6             2.9102     3.4085    -1.0738 C.ar    
   7 C7             3.7297     3.3229     0.0529 C.ar    
   8 C8             1.7150     2.7180    -1.1119 C.ar    
   9 C9             1.3281     1.9341    -0.0212 C.ar    
  10 C10            2.1527     1.8528     1.1034 C.ar    
  11 C11            3.3440     2.5446     1.1358 C.ar    
  12 N12            1.7465     1.0239     2.2606 N.pl3   
  13 O13            2.5175     0.8532     3.1879 O.2     
  14 O14            0.6414     0.5125     2.2854 O.2     
  15 N15           -1.0998     1.8499    -0.3059 N.am    
  16 N16           -1.2341     3.2303    -0.4404 N.2     
  17 C17           -2.4389     3.6214    -0.6765 C.2     
  18 C18           -3.3570     2.4214    -0.7353 C.3     
  19 C19           -2.4192     1.2237    -0.4858 C.3     
  20 C20           -2.8577     5.0227    -0.8605 C.ar    
  21 C21           -1.9148     6.0516    -0.7837 C.ar    
  22 C22           -2.3128     7.3635    -0.9575 C.ar    
  23 C23           -3.6515     7.6582    -1.2086 C.ar    
  24 C24           -4.5876     6.6376    -1.2845 C.ar    
  25 C25           -4.1970     5.3253    -1.1178 C.ar    
  26 O26           -4.0410     8.9494    -1.3792 O.3     
  27 C27           -5.4281     9.1805    -1.6334 C.3     
  28 O28           -1.3981     8.3670    -0.8830 O.3     
  29 C29           -0.0439     7.9925    -0.6223 C.3     
  30 H30            4.0817     5.8995    -0.8712 H       
  31 H31            5.3753     5.1602    -1.8677 H       
  32 H32            1.0801     2.7836    -1.9830 H       
  33 H33            3.9801     2.4805     2.0062 H       
  34 H34           -4.1184     2.4842     0.0421 H       
  35 H35           -3.8194     2.3417    -1.7192 H       
  36 H36           -2.4120     0.5540    -1.3458 H       
  37 H37           -2.7158     0.6882     0.4161 H       
  38 H38           -0.8777     5.8219    -0.5887 H       
  39 H39           -5.6241     6.8707    -1.4786 H       
  40 H40           -4.9271     4.5321    -1.1822 H       
  41 H41           -5.7212     8.6630    -2.5469 H       
  42 H42           -6.0182     8.8046    -0.7976 H       
  43 H43           -5.6029    10.2500    -1.7497 H       
  44 H44            0.5800     8.8856    -0.5883 H       
  45 H45            0.0118     7.4738     0.3347 H       
  46 H46            0.3094     7.3324    -1.4145 H       
@<TRIPOS>BOND
   1    1    2 2
   2    1    9 1
   3    1   15 am
   4    3    4 1
   5    3    7 1
   6    4    5 1
   7    4   30 1
   8    4   31 1
   9    5    6 1
  10    6    7 ar
  11    6    8 ar
  12    7   11 ar
  13    8    9 ar
  14    8   32 1
  15    9   10 ar
  16   10   11 ar
  17   10   12 1
  18   11   33 1
  19   12   13 2
  20   12   14 2
  21   15   16 1
  22   15   19 1
  23   16   17 2
  24   17   18 1
  25   17   20 1
  26   18   19 1
  27   18   34 1
  28   18   35 1
  29   19   36 1
  30   19   37 1
  31   20   21 ar
  32   20   25 ar
  33   21   22 ar
  34   21   38 1
  35   22   23 ar
  36   22   28 1
  37   23   24 ar
  38   23   26 1
  39   24   25 ar
  40   24   39 1
  41   25   40 1
  42   26   27 1
  43   27   41 1
  44   27   42 1
  45   27   43 1
  46   28   29 1
  47   29   44 1
  48   29   45 1
  49   29   46 1

#	End of record

