#	Name: ASD03731327
#	Creating user name:	WinNT
#	Creation time:	15. 06. 2019 20:45

#	Modifying user name:	WinNT
#	Modification time:	15. 06. 2019 20:45

#	Program:	/corina/corina34_cracker 3.40 0067  02.08.2006

@<TRIPOS>MOLECULE
ASD03731327
  70   76    0    0    0
SMALL
NO_CHARGES


@<TRIPOS>ATOM
   1 C1             0.0262     1.5079    -0.1248 C.2     
   2 C2             0.0676     0.0350    -0.2460 C.ar    
   3 C3             1.2936    -0.6311    -0.2833 C.ar    
   4 C4             1.3252    -2.0057    -0.3960 C.ar    
   5 C5             0.1451    -2.7239    -0.4724 C.ar    
   6 C6            -1.0736    -2.0698    -0.4360 C.ar    
   7 C7            -1.1193    -0.6960    -0.3177 C.ar    
   8 O8             1.0614     2.1415    -0.0575 O.2     
   9 N9            -1.1592     2.1485    -0.0947 N.am    
  10 C10            0.1873    -4.2252    -0.5964 C.3     
  11 O11           -2.1190    -2.0008     5.8398 O.3     
  12 C12           -2.3791    -2.1982     7.2421 C.3     
  13 O13           -2.8625    -3.5526     7.3131 O.3     
  14 C14           -2.3021    -4.1973     6.2477 C.ar    
  15 C15           -1.8460    -3.2426     5.3417 C.ar    
  16 C16           -2.1407    -5.5436     5.9737 C.ar    
  17 C17           -1.5256    -5.9544     4.7949 C.ar    
  18 C18           -1.0816    -4.9915     3.8937 C.ar    
  19 C19           -1.2355    -3.6483     4.1668 C.ar    
  20 O20           -1.2557    -7.2135     4.3453 O.3     
  21 C21           -0.4969    -5.7364     2.7236 C.3     
  22 C22           -1.0092    -7.1688     2.9266 C.3     
  23 N23            0.1813    -4.8259     0.7398 N.am    
  24 C24           -0.9396    -5.1647     1.4075 C.2     
  25 C25            1.0016    -5.6761     2.6996 C.ar    
  26 C26            1.9830    -6.0434     3.5930 C.ar    
  27 C27            3.3161    -5.8576     3.2731 C.ar    
  28 C28            3.6605    -5.3016     2.0544 C.ar    
  29 C29            2.6811    -4.9312     1.1566 C.ar    
  30 C30            1.3366    -5.1149     1.4700 C.ar    
  31 O31           -2.0817    -5.0339     1.0209 O.2     
  32 C32           -1.2002     3.6080     0.0254 C.3     
  33 N33           -2.7296     5.5514     0.1576 N.3     
  34 C34           -2.6482     4.0886    -0.0888 C.3     
  35 C35           -3.1632     3.9081    -1.5329 C.3     
  36 C36           -4.0536     5.1396    -1.7978 C.3     
  37 C37           -4.0017     5.9606    -0.4915 C.3     
  38 C38           -2.7558     5.8422     1.5973 C.3     
  39 C39           -2.4539     7.3249     1.8237 C.3     
  40 H40            2.2155    -0.0715    -0.2244 H       
  41 H41            2.2732    -2.5223    -0.4250 H       
  42 H42           -1.9911    -2.6362    -0.4961 H       
  43 H43           -2.0712    -0.1870    -0.2849 H       
  44 H44           -1.9851     1.6432    -0.1524 H       
  45 H45           -0.6848    -4.5684    -1.1529 H       
  46 H46            1.0943    -4.5209    -1.1236 H       
  47 H47           -1.4621    -2.0880     7.8209 H       
  48 H48           -3.1404    -1.5011     7.5922 H       
  49 H49           -2.4943    -6.2808     6.6793 H       
  50 H50           -0.8794    -2.9112     3.4624 H       
  51 H51           -0.2483    -7.8959     2.6427 H       
  52 H52           -1.9307    -7.3331     2.3682 H       
  53 H53            1.7118    -6.4773     4.5441 H       
  54 H54            4.0861    -6.1464     3.9731 H       
  55 H55            4.7012    -5.1565     1.8048 H       
  56 H56            2.9579    -4.4971     0.2072 H       
  57 H57           -0.7941     3.9046     0.9925 H       
  58 H58           -0.6051     4.0549    -0.7710 H       
  59 H59           -3.2835     3.5490     0.6135 H       
  60 H60           -2.3279     3.8872    -2.2329 H       
  61 H61           -3.7492     2.9927    -1.6142 H       
  62 H62           -3.6553     5.7232    -2.6278 H       
  63 H63           -5.0767     4.8287    -2.0092 H       
  64 H64           -4.8504     5.7141     0.1464 H       
  65 H65           -3.9891     7.0277    -0.7134 H       
  66 H66           -3.7420     5.6069     1.9975 H       
  67 H67           -2.0042     5.2368     2.1039 H       
  68 H68           -2.4734     7.5406     2.8920 H       
  69 H69           -1.4677     7.5601     1.4234 H       
  70 H70           -3.2055     7.9302     1.3170 H       
@<TRIPOS>BOND
   1    1    2 1
   2    1    8 2
   3    1    9 am
   4    2    3 ar
   5    2    7 ar
   6    3    4 ar
   7    3   40 1
   8    4    5 ar
   9    4   41 1
  10    5    6 ar
  11    5   10 1
  12    6    7 ar
  13    6   42 1
  14    7   43 1
  15    9   32 1
  16    9   44 1
  17   10   23 1
  18   10   45 1
  19   10   46 1
  20   11   12 1
  21   11   15 1
  22   12   13 1
  23   12   47 1
  24   12   48 1
  25   13   14 1
  26   14   15 ar
  27   14   16 ar
  28   15   19 ar
  29   16   17 ar
  30   16   49 1
  31   17   18 ar
  32   17   20 1
  33   18   19 ar
  34   18   21 1
  35   19   50 1
  36   20   22 1
  37   21   22 1
  38   21   24 1
  39   21   25 1
  40   22   51 1
  41   22   52 1
  42   23   24 am
  43   23   30 1
  44   24   31 2
  45   25   26 ar
  46   25   30 ar
  47   26   27 ar
  48   26   53 1
  49   27   28 ar
  50   27   54 1
  51   28   29 ar
  52   28   55 1
  53   29   30 ar
  54   29   56 1
  55   32   34 1
  56   32   57 1
  57   32   58 1
  58   33   34 1
  59   33   37 1
  60   33   38 1
  61   34   35 1
  62   34   59 1
  63   35   36 1
  64   35   60 1
  65   35   61 1
  66   36   37 1
  67   36   62 1
  68   36   63 1
  69   37   64 1
  70   37   65 1
  71   38   39 1
  72   38   66 1
  73   38   67 1
  74   39   68 1
  75   39   69 1
  76   39   70 1

#	End of record

