#	Name: ASD01881646
#	Creating user name:	WinNT
#	Creation time:	15. 06. 2019 19:43

#	Modifying user name:	WinNT
#	Modification time:	15. 06. 2019 19:43

#	Program:	/corina/corina34_cracker 3.40 0067  02.08.2006

@<TRIPOS>MOLECULE
ASD01881646
  58   60    0    0    0
SMALL
NO_CHARGES


@<TRIPOS>ATOM
   1 C1            -0.0184     1.5028     0.0103 C.2     
   2 C2             0.0021    -0.0041     0.0020 C.3     
   3 C3             1.4513    -0.4944    -0.0145 C.3     
   4 O4             1.0236     2.1234     0.0037 O.2     
   5 N5            -1.1946     2.1607     0.0195 N.am    
   6 C6            -0.7002    -0.5305     1.2552 C.3     
   7 C7            -0.7241    -0.5171    -1.2431 C.3     
   8 C8            -1.2135     3.5546     0.0271 C.ar    
   9 C9            -2.4305     4.2269     0.0366 C.ar    
  10 C10           -2.4349     5.6105     0.0441 C.ar    
  11 C11           -1.2168     6.2768     0.0419 C.ar    
  12 C12           -0.0461     5.5449     0.0324 C.ar    
  13 N13           -0.0728     4.2258     0.0308 N.ar    
  14 C14           -3.7272     3.4591     0.0380 C.3     
  15 O15           -4.8235     4.3756     0.0483 O.3     
  16 N16           -9.9639     2.4835     0.0603 N.pl3   
  17 N17          -10.5905     3.7385     0.0711 N.2     
  18 N18           -9.6964     4.6634     0.0729 N.2     
  19 C19           -8.4620     4.1218     0.0639 C.ar    
  20 C20           -8.6088     2.7239     0.0557 C.ar    
  21 C21           -7.1741     4.6748     0.0608 C.ar    
  22 C22           -6.0743     3.8420     0.0509 C.ar    
  23 C23           -6.2358     2.4586     0.0432 C.ar    
  24 C24           -7.4851     1.9052     0.0447 C.ar    
  25 C25          -10.6223     1.1748     0.0605 C.3     
  26 C26          -10.8635     0.7251    -1.3819 C.3     
  27 C27           -9.5243     0.6222    -2.1147 C.3     
  28 C28          -11.5511    -0.6417    -1.3818 C.3     
  29 C29          -11.7561     1.7450    -2.0917 C.3     
  30 Br30          -6.9452     6.5519     0.0709 Br      
  31 H31            1.9686    -0.1289     0.8726 H       
  32 H32            1.4661    -1.5843    -0.0204 H       
  33 H33            1.9516    -0.1193    -0.9073 H       
  34 H34           -2.0280     1.6644     0.0207 H       
  35 H35           -1.7327    -0.1812     1.2669 H       
  36 H36           -0.6854    -1.6204     1.2492 H       
  37 H37           -0.1829    -0.1650     2.1423 H       
  38 H38           -0.2237    -0.1421    -2.1359 H       
  39 H39           -0.7093    -1.6070    -1.2491 H       
  40 H40           -1.7565    -0.1678    -1.2314 H       
  41 H41           -3.3648     6.1597     0.0511 H       
  42 H42           -1.1854     7.3563     0.0473 H       
  43 H43            0.9038     6.0588     0.0303 H       
  44 H44           -3.7821     2.8370    -0.8553 H       
  45 H45           -3.7740     2.8267     0.9246 H       
  46 H46           -5.3663     1.8180     0.0352 H       
  47 H47           -7.5998     0.8314     0.0385 H       
  48 H48           -9.9863     0.4482     0.5661 H       
  49 H49          -11.5764     1.2481     0.5825 H       
  50 H50           -8.8883    -0.1044    -1.6091 H       
  51 H51           -9.6961     0.3018    -3.1423 H       
  52 H52           -9.0344     1.5959    -2.1148 H       
  53 H53          -12.5051    -0.5684    -0.8597 H       
  54 H54          -11.7228    -0.9621    -2.4094 H       
  55 H55          -10.9151    -1.3683    -0.8761 H       
  56 H56          -11.2663     2.7187    -2.0918 H       
  57 H57          -11.9279     1.4246    -3.1193 H       
  58 H58          -12.7102     1.8183    -1.5696 H       
@<TRIPOS>BOND
   1    1    2 1
   2    1    4 2
   3    1    5 am
   4    2    3 1
   5    2    6 1
   6    2    7 1
   7    3   31 1
   8    3   32 1
   9    3   33 1
  10    5    8 1
  11    5   34 1
  12    6   35 1
  13    6   36 1
  14    6   37 1
  15    7   38 1
  16    7   39 1
  17    7   40 1
  18    8    9 ar
  19    8   13 ar
  20    9   10 ar
  21    9   14 1
  22   10   11 ar
  23   10   41 1
  24   11   12 ar
  25   11   42 1
  26   12   13 ar
  27   12   43 1
  28   14   15 1
  29   14   44 1
  30   14   45 1
  31   15   22 1
  32   16   17 1
  33   16   20 1
  34   16   25 1
  35   17   18 2
  36   18   19 1
  37   19   20 ar
  38   19   21 ar
  39   20   24 ar
  40   21   22 ar
  41   21   30 1
  42   22   23 ar
  43   23   24 ar
  44   23   46 1
  45   24   47 1
  46   25   26 1
  47   25   48 1
  48   25   49 1
  49   26   27 1
  50   26   28 1
  51   26   29 1
  52   27   50 1
  53   27   51 1
  54   27   52 1
  55   28   53 1
  56   28   54 1
  57   28   55 1
  58   29   56 1
  59   29   57 1
  60   29   58 1

#	End of record

