#	Name: ASD06390023
#	Creating user name:	WinNT
#	Creation time:	15. 06. 2019 21:06

#	Modifying user name:	WinNT
#	Modification time:	15. 06. 2019 21:06

#	Program:	/corina/corina34_cracker 3.40 0067  02.08.2006

@<TRIPOS>MOLECULE
ASD06390023
  48   52    0    0    0
SMALL
NO_CHARGES


@<TRIPOS>ATOM
   1 C1            -1.0023     1.6493    -0.2968 C.ar    
   2 C2            -1.2100     0.3024    -0.3934 C.ar    
   3 C3            -0.1381    -0.5679    -0.5382 C.ar    
   4 C4             1.1530    -0.0902    -0.5875 C.ar    
   5 C5             0.2983     2.1553    -0.3444 C.ar    
   6 C6             1.3878     1.2777    -0.4915 C.ar    
   7 N7             2.5297     2.0468    -0.5062 N.pl3   
   8 C8             2.2019     3.3688    -0.3751 C.2     
   9 C9             0.8701     3.5020    -0.2728 C.2     
  10 C10            0.1078     4.7923    -0.1149 C.3     
  11 C11           -0.1569     5.0437     1.3472 C.2     
  12 N12            0.1906     6.1742     2.0187 N.pl3   
  13 N13           -0.7562     4.2131     2.1497 N.2     
  14 C14           -0.8295     4.7523     3.3939 C.ar    
  15 C15           -0.2234     6.0179     3.3283 C.ar    
  16 C16           -0.1507     6.8138     4.4636 C.ar    
  17 C17           -0.6707     6.3596     5.6554 C.ar    
  18 C18           -1.2708     5.1040     5.7300 C.ar    
  19 C19           -1.3577     4.3033     4.6071 C.ar    
  20 N20           -1.7958     4.6541     6.9486 N.am    
  21 C21           -1.7133     3.3496     7.2774 C.2     
  22 C22           -2.1826     2.8827     8.6311 C.3     
  23 O23           -1.2614     2.5516     6.4836 O.2     
  24 N24           -2.4138     1.4267     8.6071 N.3     
  25 C25           -1.5012     0.7889     9.5799 C.3     
  26 C26           -1.1710     1.9045    10.6027 C.3     
  27 C27           -1.0913     3.1549     9.6877 C.3     
  28 H28           -1.8413     2.3207    -0.1885 H       
  29 H29           -2.2162    -0.0884    -0.3565 H       
  30 H30           -0.3183    -1.6301    -0.6126 H       
  31 H31            1.9802    -0.7754    -0.7000 H       
  32 H32            3.4322     1.7027    -0.5959 H       
  33 H33            2.9098     4.1842    -0.3564 H       
  34 H34            0.6955     5.6140    -0.5242 H       
  35 H35           -0.8399     4.7222    -0.6489 H       
  36 H36            0.6449     6.9467     1.6476 H       
  37 H37            0.3133     7.7877     4.4124 H       
  38 H38           -0.6129     6.9802     6.5375 H       
  39 H39           -1.8237     3.3310     4.6690 H       
  40 H40           -2.2186     5.2815     7.5556 H       
  41 H41           -3.1027     3.3998     8.9032 H       
  42 H42           -3.3763     1.2099     8.8184 H       
  43 H43           -1.9977    -0.0454    10.0754 H       
  44 H44           -0.5929     0.4496     9.0820 H       
  45 H45           -1.9690     2.0088    11.3378 H       
  46 H46           -0.2148     1.7162    11.0907 H       
  47 H47           -0.1101     3.2272     9.2186 H       
  48 H48           -1.3178     4.0599    10.2514 H       
@<TRIPOS>BOND
   1    1    2 ar
   2    1    5 ar
   3    1   28 1
   4    2    3 ar
   5    2   29 1
   6    3    4 ar
   7    3   30 1
   8    4    6 ar
   9    4   31 1
  10    5    6 ar
  11    5    9 1
  12    6    7 1
  13    7    8 1
  14    7   32 1
  15    8    9 2
  16    8   33 1
  17    9   10 1
  18   10   11 1
  19   10   34 1
  20   10   35 1
  21   11   12 1
  22   11   13 2
  23   12   15 1
  24   12   36 1
  25   13   14 1
  26   14   15 ar
  27   14   19 ar
  28   15   16 ar
  29   16   17 ar
  30   16   37 1
  31   17   18 ar
  32   17   38 1
  33   18   19 ar
  34   18   20 1
  35   19   39 1
  36   20   21 am
  37   20   40 1
  38   21   23 2
  39   21   22 1
  40   22   24 1
  41   22   27 1
  42   22   41 1
  43   24   25 1
  44   24   42 1
  45   25   26 1
  46   25   43 1
  47   25   44 1
  48   26   27 1
  49   26   45 1
  50   26   46 1
  51   27   47 1
  52   27   48 1

#	End of record

