#	Name: ASD04590305
#	Creating user name:	WinNT
#	Creation time:	15. 06. 2019 20:50

#	Modifying user name:	WinNT
#	Modification time:	15. 06. 2019 20:50

#	Program:	/corina/corina34_cracker 3.40 0067  02.08.2006

@<TRIPOS>MOLECULE
ASD04590305
  40   43    0    0    0
SMALL
NO_CHARGES


@<TRIPOS>ATOM
   1 C1            -0.0168     1.3876     0.0097 C.ar    
   2 C2             0.0021    -0.0041     0.0020 C.ar    
   3 C3             1.2021    -0.6866    -0.0131 C.ar    
   4 C4             2.4052     0.0260    -0.0207 C.ar    
   5 C5             2.3773     1.4317    -0.0129 C.ar    
   6 C6             1.1626     2.1017     0.0022 C.ar    
   7 N7             3.7079    -0.3491    -0.0356 N.2     
   8 C8             4.4734     0.7155    -0.0374 C.2     
   9 N9             3.6984     1.8435    -0.0237 N.pl3   
  10 C10            5.9508     0.6997    -0.0513 C.2     
  11 C11            6.7697    -0.4530    -0.0652 C.2     
  12 C12            8.0614    -0.0422    -0.0759 C.2     
  13 N13            8.0664     1.3167    -0.0691 N.pl3   
  14 N14            6.7373     1.7581    -0.0587 N.2     
  15 N15            6.3245    -1.7849    -0.0676 N.am    
  16 C16            7.2178    -2.7940    -0.0815 C.2     
  17 C17            6.7501    -4.1931    -0.0840 C.ar    
  18 O18            8.4094    -2.5512    -0.0921 O.2     
  19 C19            6.0711    -6.1632    -1.2874 C.ar    
  20 C20            5.8700    -6.8230    -0.0886 C.ar    
  21 C21            6.1003    -6.1772     1.1126 C.ar    
  22 C22            6.5390    -4.8665     1.1241 C.ar    
  23 C23            6.5096    -4.8524    -1.2943 C.ar    
  24 F24            6.7049    -4.2096    -2.4664 F       
  25 F25            6.7638    -4.2376     2.2985 F       
  26 O26           -1.1686    -0.6957     0.0099 O.3     
  27 C27           -2.3747     0.0705     0.0260 C.3     
  28 H28           -0.9612     1.9114     0.0170 H       
  29 H29            1.2116    -1.7666    -0.0186 H       
  30 H30            1.1409     3.1815     0.0079 H       
  31 H31            4.0157     2.7601    -0.0222 H       
  32 H32            8.9319    -0.6813    -0.0872 H       
  33 H33            8.8540     1.8829    -0.0737 H       
  34 H34            5.3741    -1.9786    -0.0592 H       
  35 H35            5.8889    -6.6749    -2.2208 H       
  36 H36            5.5273    -7.8471    -0.0904 H       
  37 H37            5.9405    -6.6997     2.0441 H       
  38 H38           -3.2324    -0.6021     0.0309 H       
  39 H39           -2.3970     0.6942     0.9196 H       
  40 H40           -2.4147     0.7038    -0.8603 H       
@<TRIPOS>BOND
   1    1    2 ar
   2    1    6 ar
   3    1   28 1
   4    2    3 ar
   5    2   26 1
   6    3    4 ar
   7    3   29 1
   8    4    5 ar
   9    4    7 1
  10    5    6 ar
  11    5    9 1
  12    6   30 1
  13    7    8 2
  14    8    9 1
  15    8   10 1
  16    9   31 1
  17   10   11 1
  18   10   14 2
  19   11   12 2
  20   11   15 1
  21   12   13 1
  22   12   32 1
  23   13   14 1
  24   13   33 1
  25   15   16 am
  26   15   34 1
  27   16   17 1
  28   16   18 2
  29   17   22 ar
  30   17   23 ar
  31   19   20 ar
  32   19   23 ar
  33   19   35 1
  34   20   21 ar
  35   20   36 1
  36   21   22 ar
  37   21   37 1
  38   22   25 1
  39   23   24 1
  40   26   27 1
  41   27   38 1
  42   27   39 1
  43   27   40 1

#	End of record

