#	Name: ASD01915243
#	Creating user name:	WinNT
#	Creation time:	15. 06. 2019 20:05

#	Modifying user name:	WinNT
#	Modification time:	15. 06. 2019 20:05

#	Program:	/corina/corina34_cracker 3.40 0067  02.08.2006

@<TRIPOS>MOLECULE
ASD01915243
  27   28    0    0    0
SMALL
NO_CHARGES


@<TRIPOS>ATOM
   1 C1            -0.0167     1.3910     0.0216 C.ar    
   2 C2             0.0034    -0.0052     0.0433 C.ar    
   3 C3            -1.1828    -0.7162     0.0705 C.ar    
   4 C4            -2.3944    -0.0501     0.0759 C.ar    
   5 C5            -2.4266     1.3466     0.0543 C.ar    
   6 C6            -1.2345     2.0680     0.0332 C.ar    
   7 F7            -1.1573    -2.0668     0.0915 F       
   8 C8             1.2520     2.1494    -0.0075 C.2     
   9 N9             2.4293     1.4934    -0.0131 N.am    
  10 O10            1.2333     3.3648    -0.0264 O.2     
  11 C11            3.6278     2.2074    -0.1264 C.ar    
  12 C12            4.7571     1.5938    -0.6576 C.ar    
  13 C13            5.9395     2.3026    -0.7684 C.ar    
  14 C14            5.9991     3.6195    -0.3517 C.ar    
  15 C15            4.8768     4.2327     0.1773 C.ar    
  16 C16            3.6903     3.5315     0.2860 C.ar    
  17 Cl17           4.9572     5.8865     0.6989 Cl      
  18 F18            4.6993     0.3068    -1.0644 F       
  19 C19           -3.6820     2.0355     0.0599 C.1     
  20 N20           -4.6779     2.5819     0.0643 N.1     
  21 H21            0.9468    -0.5308     0.0385 H       
  22 H22           -3.3175    -0.6103     0.0964 H       
  23 H23           -1.2545     3.1477     0.0164 H       
  24 H24            2.4461     0.5264     0.0614 H       
  25 H25            6.8171     1.8268    -1.1805 H       
  26 H26            6.9236     4.1709    -0.4389 H       
  27 H27            2.8151     4.0108     0.6990 H       
@<TRIPOS>BOND
   1    1    2 ar
   2    1    8 1
   3    1    6 ar
   4    2    3 ar
   5    2   21 1
   6    3    4 ar
   7    3    7 1
   8    4    5 ar
   9    4   22 1
  10    5    6 ar
  11    5   19 1
  12    6   23 1
  13    8    9 am
  14    8   10 2
  15    9   11 1
  16    9   24 1
  17   11   12 ar
  18   11   16 ar
  19   12   13 ar
  20   12   18 1
  21   13   14 ar
  22   13   25 1
  23   14   15 ar
  24   14   26 1
  25   15   16 ar
  26   15   17 1
  27   16   27 1
  28   19   20 3

#	End of record

