#	Name: ASD08150907
#	Creating user name:	WinNT
#	Creation time:	15. 06. 2019 21:16

#	Modifying user name:	WinNT
#	Modification time:	15. 06. 2019 21:16

#	Program:	/corina/corina34_cracker 3.40 0067  02.08.2006

@<TRIPOS>MOLECULE
ASD08150907
  45   49    0    0    0
SMALL
NO_CHARGES


@<TRIPOS>ATOM
   1 N1            -0.2716     1.4094     0.0612 N.2     
   2 C2            -0.6748     0.2766     0.5589 C.2     
   3 N3            -0.3424     0.2031     1.8789 N.pl3   
   4 C4             0.3053     1.3677     2.2054 C.ar    
   5 N5             0.8496     1.8600     3.3132 N.ar    
   6 C6             1.4174     3.0477     3.3113 C.ar    
   7 N7             1.4771     3.8031     2.2299 N.ar    
   8 C8             0.9600     3.3946     1.0756 C.ar    
   9 C9             0.3434     2.1330     1.0274 C.ar    
  10 N10            1.0270     4.1936    -0.0524 N.pl3   
  11 C11            1.6735     5.5064     0.0171 C.3     
  12 C12            2.1601     5.9096    -1.3762 C.3     
  13 N13            0.6006     9.7966     2.1279 N.ar    
  14 N14           -0.2543    10.6577     2.5506 N.ar    
  15 C15           -1.5654    10.4827     2.4638 C.ar    
  16 C16           -2.0829     9.3469     1.9058 C.ar    
  17 C17           -1.1734     8.3828     1.4320 C.ar    
  18 C18           -1.5994     7.1826     0.8418 C.ar    
  19 C19           -0.6778     6.2803     0.3968 C.ar    
  20 C20            0.6850     6.5272     0.5189 C.ar    
  21 C21            1.1455     7.6977     1.0955 C.ar    
  22 C22            0.2125     8.6519     1.5651 C.ar    
  23 C23            2.6002     7.9490     1.2198 C.ar    
  24 C24            3.1909     8.9997     0.5189 C.ar    
  25 C25            4.5486     9.2301     0.6382 C.ar    
  26 C26            5.3222     8.4189     1.4520 C.ar    
  27 C27            4.7401     7.3735     2.1500 C.ar    
  28 C28            3.3821     7.1391     2.0426 C.ar    
  29 F29            5.5000     6.5853     2.9415 F       
  30 F30            5.1221    10.2478    -0.0405 F       
  31 Cl31          -3.2948     6.8474     0.6780 Cl      
  32 H32           -1.1961    -0.4919     0.0075 H       
  33 H33           -0.5298    -0.5367     2.4777 H       
  34 H34            1.8504     3.4183     4.2287 H       
  35 H35            0.6459     3.8843    -0.8891 H       
  36 H36            2.5228     5.4575     0.6986 H       
  37 H37            2.6412     6.8864    -1.3245 H       
  38 H38            2.8751     5.1713    -1.7392 H       
  39 H39            1.3108     5.9585    -2.0577 H       
  40 H40           -2.2321    11.2454     2.8382 H       
  41 H41           -3.1496     9.1951     1.8313 H       
  42 H42           -1.0123     5.3586    -0.0560 H       
  43 H43            2.5887     9.6323    -0.1164 H       
  44 H44            6.3828     8.6019     1.5423 H       
  45 H45            2.9284     6.3268     2.5909 H       
@<TRIPOS>BOND
   1    1    2 2
   2    1    9 1
   3    2    3 1
   4    2   32 1
   5    3    4 1
   6    3   33 1
   7    4    5 ar
   8    4    9 ar
   9    5    6 ar
  10    6    7 ar
  11    6   34 1
  12    7    8 ar
  13    8    9 ar
  14    8   10 1
  15   10   11 1
  16   10   35 1
  17   11   12 1
  18   11   20 1
  19   11   36 1
  20   12   37 1
  21   12   38 1
  22   12   39 1
  23   13   14 ar
  24   13   22 ar
  25   14   15 ar
  26   15   16 ar
  27   15   40 1
  28   16   17 ar
  29   16   41 1
  30   17   18 ar
  31   17   22 ar
  32   18   19 ar
  33   18   31 1
  34   19   20 ar
  35   19   42 1
  36   20   21 ar
  37   21   22 ar
  38   21   23 1
  39   23   24 ar
  40   23   28 ar
  41   24   25 ar
  42   24   43 1
  43   25   26 ar
  44   25   30 1
  45   26   27 ar
  46   26   44 1
  47   27   28 ar
  48   27   29 1
  49   28   45 1

#	End of record

