#	Name: ASD00069021
#	Creating user name:	WinNT
#	Creation time:	15. 06. 2019 18:29

#	Modifying user name:	WinNT
#	Modification time:	15. 06. 2019 18:29

#	Program:	/corina/corina34_cracker 3.40 0067  02.08.2006

@<TRIPOS>MOLECULE
ASD00069021
  52   57    0    0    0
SMALL
NO_CHARGES


@<TRIPOS>ATOM
   1 C1            -0.0185     1.3935     0.0029 C.ar    
   2 C2            -0.0132     0.0168     0.2278 C.ar    
   3 C3            -1.1809    -0.6890     0.2324 C.ar    
   4 C4            -2.3929    -0.0312     0.0108 C.ar    
   5 C5            -2.4072     1.3571    -0.2168 C.ar    
   6 C6            -1.2083     2.0642    -0.2133 C.ar    
   7 C7            -3.7920    -0.4725    -0.0495 C.2     
   8 N8            -4.5302     0.5861    -0.2917 N.2     
   9 N9            -3.7181     1.7193    -0.3996 N.pl3   
  10 C10           -4.2798    -1.8544     0.1288 C.2     
  11 N11           -3.5219    -2.8967     0.3699 N.2     
  12 C12           -4.2938    -4.0066     0.4771 C.ar    
  13 C13           -5.6280    -3.6052     0.2856 C.ar    
  14 N14           -5.5941    -2.2404     0.0731 N.pl3   
  15 C15           -4.0072    -5.3537     0.7235 C.ar    
  16 C16           -5.0194    -6.2680     0.7766 C.ar    
  17 C17           -6.3428    -5.8732     0.5871 C.ar    
  18 C18           -6.6476    -4.5443     0.3420 C.ar    
  19 N19           -7.3672    -6.8228     0.6448 N.3     
  20 C20           -6.8280    -8.1638     0.9141 C.3     
  21 C21           -7.9851    -9.1597     1.0282 C.3     
  22 O22           -8.7621    -9.1195    -0.1718 O.3     
  23 C23           -9.3033    -7.8284    -0.4644 C.3     
  24 C24           -8.1595    -6.8190    -0.5936 C.3     
  25 N25            1.1882     2.1018     0.0020 N.am    
  26 C26            1.2357     3.3527     0.5016 C.2     
  27 C27            2.5541     4.0763     0.5970 C.3     
  28 O28            0.2174     3.8959     0.8743 O.2     
  29 C29            2.5420     5.4937     1.1730 C.3     
  30 C30            3.1164     4.3386     1.9956 C.3     
  31 F31            3.4460     6.4168     0.6364 F       
  32 F32            1.3077     6.0188     1.5708 F       
  33 H33            0.9226    -0.4945     0.3991 H       
  34 H34           -1.1679    -1.7547     0.4069 H       
  35 H35           -1.2066     3.1301    -0.3868 H       
  36 H36           -4.0320     2.6201    -0.5756 H       
  37 H37           -6.3569    -1.6642    -0.0912 H       
  38 H38           -2.9852    -5.6702     0.8713 H       
  39 H39           -4.7928    -7.3067     0.9667 H       
  40 H40           -7.6736    -4.2408     0.1955 H       
  41 H41           -6.1701    -8.4622     0.0979 H       
  42 H42           -6.2667    -8.1495     1.8483 H       
  43 H43           -7.5877   -10.1646     1.1709 H       
  44 H44           -8.6134    -8.8920     1.8777 H       
  45 H45           -9.8591    -7.8705    -1.4010 H       
  46 H46           -9.9699    -7.5220     0.3418 H       
  47 H47           -8.5701    -5.8230    -0.7599 H       
  48 H48           -7.5228    -7.0959    -1.4338 H       
  49 H49            1.9905     1.6926    -0.3582 H       
  50 H50            3.2662     3.8631    -0.2002 H       
  51 H51            2.5327     3.9877     2.8466 H       
  52 H52            4.1987     4.2979     2.1187 H       
@<TRIPOS>BOND
   1    1    2 ar
   2    1   25 1
   3    1    6 ar
   4    2    3 ar
   5    2   33 1
   6    3    4 ar
   7    3   34 1
   8    4    5 ar
   9    4    7 1
  10    5    6 ar
  11    5    9 1
  12    6   35 1
  13    7    8 2
  14    7   10 1
  15    8    9 1
  16    9   36 1
  17   10   11 2
  18   10   14 1
  19   11   12 1
  20   12   13 ar
  21   12   15 ar
  22   13   14 1
  23   13   18 ar
  24   14   37 1
  25   15   16 ar
  26   15   38 1
  27   16   17 ar
  28   16   39 1
  29   17   18 ar
  30   17   19 1
  31   18   40 1
  32   19   20 1
  33   19   24 1
  34   20   21 1
  35   20   41 1
  36   20   42 1
  37   21   22 1
  38   21   43 1
  39   21   44 1
  40   22   23 1
  41   23   24 1
  42   23   45 1
  43   23   46 1
  44   24   47 1
  45   24   48 1
  46   25   26 am
  47   25   49 1
  48   26   27 1
  49   26   28 2
  50   27   29 1
  51   27   30 1
  52   27   50 1
  53   29   30 1
  54   29   31 1
  55   29   32 1
  56   30   51 1
  57   30   52 1

#	End of record

