#	Name: ASD04560163
#	Creating user name:	WinNT
#	Creation time:	15. 06. 2019 20:49

#	Modifying user name:	WinNT
#	Modification time:	15. 06. 2019 20:49

#	Program:	/corina/corina34_cracker 3.40 0067  02.08.2006

@<TRIPOS>MOLECULE
ASD04560163
  50   53    0    0    0
SMALL
NO_CHARGES


@<TRIPOS>ATOM
   1 C1            -0.1372     1.5450     0.3443 C.ar    
   2 C2            -0.1548     0.1744     0.3624 C.ar    
   3 C3             1.0328    -0.5407     0.2250 C.ar    
   4 C4             2.2413     0.1342     0.0685 C.ar    
   5 C5             2.2650     1.5048     0.0492 C.ar    
   6 C6             1.0745     2.2253     0.1873 C.ar    
   7 C7             1.0966     3.6995     0.1665 C.2     
   8 O8             2.1509     4.2899     0.0291 O.2     
   9 N9            -0.0516     4.3926     0.2996 N.am    
  10 C10           -0.0192     5.7865     0.3954 C.ar    
  11 C11           -1.0405     6.5445    -0.1653 C.ar    
  12 C12            1.0651     7.7874     1.1518 C.ar    
  13 C13            1.0312     6.4125     1.0561 C.ar    
  14 S14            1.0063    -2.3023     0.2499 S.3     
  15 C15           -1.0104     7.9196    -0.0723 C.ar    
  16 C16            0.0451     8.5498     0.5849 C.ar    
  17 C17            0.0797    10.0296     0.6861 C.2     
  18 C18            2.7543    -2.7397     0.0402 C.3     
  19 C19            2.9004    -4.2396     0.0407 C.ar    
  20 C20            2.7242    -4.9585    -1.1402 C.ar    
  21 C21            3.2145    -4.9032     1.2092 C.ar    
  22 C22            2.8613    -6.3459    -1.1326 C.ar    
  23 C23            3.1703    -6.9995     0.0423 C.ar    
  24 C24            3.3494    -6.2800     1.2109 C.ar    
  25 B25            2.3721    -4.2089    -2.4739 Du      
  26 O26            2.6938    -4.7976    -3.7255 O.3     
  27 O27            1.7320    -2.9422    -2.4287 O.3     
  28 N28            1.0356    10.7490     1.2895 N.2     
  29 N29           -0.8199    10.8529     0.1936 N.2     
  30 N30           -0.3970    12.1527     0.5159 N.pl3   
  31 C31            0.7573    12.0223     1.1939 C.2     
  32 H32           -1.0588     2.0988     0.4467 H       
  33 H33           -1.0903    -0.3516     0.4835 H       
  34 H34            3.1605    -0.4228    -0.0374 H       
  35 H35            3.2023     2.0275    -0.0718 H       
  36 H36           -0.9004     3.9240     0.3290 H       
  37 H37           -1.8581     6.0558    -0.6744 H       
  38 H38            1.8813     8.2734     1.6656 H       
  39 H39            1.8213     5.8214     1.4952 H       
  40 H40           -1.8037     8.5083    -0.5088 H       
  41 H41            3.1180    -2.3395    -0.9062 H       
  42 H42            3.3353    -2.3178     0.8603 H       
  43 H43            3.3556    -4.3466     2.1239 H       
  44 H44            2.7255    -6.9079    -2.0448 H       
  45 H45            3.2768    -8.0742     0.0493 H       
  46 H46            3.5912    -6.7958     2.1285 H       
  47 H47            2.4386    -4.2621    -4.4892 H       
  48 H48            1.5558    -2.5592    -3.2990 H       
  49 H49           -0.8477    12.9818     0.2915 H       
  50 H50            1.3520    12.8313     1.5918 H       
@<TRIPOS>BOND
   1    1    2 ar
   2    1    6 ar
   3    1   32 1
   4    2    3 ar
   5    2   33 1
   6    3    4 ar
   7    3   14 1
   8    4    5 ar
   9    4   34 1
  10    5    6 ar
  11    5   35 1
  12    6    7 1
  13    7    8 2
  14    7    9 am
  15    9   10 1
  16    9   36 1
  17   10   11 ar
  18   10   13 ar
  19   11   15 ar
  20   11   37 1
  21   12   13 ar
  22   12   16 ar
  23   12   38 1
  24   13   39 1
  25   14   18 1
  26   15   16 ar
  27   15   40 1
  28   16   17 1
  29   17   28 1
  30   17   29 2
  31   18   19 1
  32   18   41 1
  33   18   42 1
  34   19   20 ar
  35   19   21 ar
  36   20   25 1
  37   20   22 ar
  38   21   24 ar
  39   21   43 1
  40   22   23 ar
  41   22   44 1
  42   23   24 ar
  43   23   45 1
  44   24   46 1
  45   25   26 1
  46   25   27 1
  47   26   47 1
  48   27   48 1
  49   28   31 2
  50   29   30 1
  51   30   31 1
  52   30   49 1
  53   31   50 1

#	End of record

