#	Name: ASD08150511
#	Creating user name:	WinNT
#	Creation time:	15. 06. 2019 21:16

#	Modifying user name:	WinNT
#	Modification time:	15. 06. 2019 21:16

#	Program:	/corina/corina34_cracker 3.40 0067  02.08.2006

@<TRIPOS>MOLECULE
ASD08150511
  46   50    0    0    0
SMALL
NO_CHARGES


@<TRIPOS>ATOM
   1 N1             0.0027     1.3754     0.0697 N.am    
   2 C2             0.0791     0.1262     0.5682 C.2     
   3 C3             1.2983    -0.5814     0.5640 C.2     
   4 C4             2.4184    -0.0092     0.0535 C.2     
   5 C5             2.3417     1.3047    -0.4723 C.ar    
   6 C6             3.4736     1.9437    -1.0138 C.ar    
   7 N7             3.4001     3.1555    -1.4985 N.ar    
   8 C8             2.2551     3.8555    -1.5091 C.ar    
   9 C9             1.0667     3.2912    -0.9848 C.ar    
  10 C10            1.1127     1.9819    -0.4524 C.ar    
  11 C11           -0.1211     5.3058    -1.5293 C.ar    
  12 C12            1.0534     5.8581    -2.0453 C.ar    
  13 C13            2.2192     5.1550    -2.0389 C.ar    
  14 O14           -0.9196    -0.3993     1.0297 O.2     
  15 C15           -1.2215     2.0554     0.0806 C.ar    
  16 C16           -2.0925     1.9363    -0.9942 C.ar    
  17 C17           -3.2994     2.6078    -0.9815 C.ar    
  18 C18           -3.6411     3.3992     0.1021 C.ar    
  19 C19           -2.7735     3.5197     1.1751 C.ar    
  20 C20           -1.5687     2.8452     1.1691 C.ar    
  21 C21           -0.1210     4.0312    -1.0011 C.ar    
  22 N22           -1.3083     6.0520    -1.5477 N.pl3   
  23 F23           -4.8221     4.0552     0.1126 F       
  24 C24           -4.2449     2.4793    -2.1480 C.3     
  25 C25           -2.4867     5.6805    -2.1119 C.2     
  26 N26           -3.3565     6.6355    -1.9245 N.2     
  27 C27           -2.7777     7.6368    -1.2452 C.2     
  28 C28           -1.5004     7.2916    -0.9946 C.2     
  29 C29           -0.4761     8.1140    -0.2560 C.3     
  30 H30            1.3414    -1.5818     0.9684 H       
  31 H31            3.3547    -0.5473     0.0485 H       
  32 H32            4.4199     1.4233    -1.0287 H       
  33 H33            1.0365     6.8570    -2.4555 H       
  34 H34            3.1181     5.5979    -2.4418 H       
  35 H35           -1.8262     1.3194    -1.8397 H       
  36 H36           -3.0416     4.1378     2.0192 H       
  37 H37           -0.8925     2.9394     2.0059 H       
  38 H38           -1.0313     3.6074    -0.6034 H       
  39 H39           -4.9183     1.6391    -1.9790 H       
  40 H40           -4.8258     3.3962    -2.2475 H       
  41 H41           -3.6743     2.3097    -3.0611 H       
  42 H42           -2.6727     4.7510    -2.6293 H       
  43 H43           -3.2547     8.5588    -0.9472 H       
  44 H44           -0.5202     7.8795     0.8075 H       
  45 H45            0.5185     7.8840    -0.6379 H       
  46 H46           -0.6859     9.1735    -0.4035 H       
@<TRIPOS>BOND
   1    1    2 am
   2    1   10 1
   3    1   15 1
   4    2    3 1
   5    2   14 2
   6    3    4 2
   7    3   30 1
   8    4    5 1
   9    4   31 1
  10    5    6 ar
  11    5   10 ar
  12    6    7 ar
  13    6   32 1
  14    7    8 ar
  15    8    9 ar
  16    8   13 ar
  17    9   10 ar
  18    9   21 ar
  19   11   12 ar
  20   11   22 1
  21   11   21 ar
  22   12   13 ar
  23   12   33 1
  24   13   34 1
  25   15   16 ar
  26   15   20 ar
  27   16   17 ar
  28   16   35 1
  29   17   18 ar
  30   17   24 1
  31   18   19 ar
  32   18   23 1
  33   19   20 ar
  34   19   36 1
  35   20   37 1
  36   21   38 1
  37   22   25 1
  38   22   28 1
  39   24   39 1
  40   24   40 1
  41   24   41 1
  42   25   26 2
  43   25   42 1
  44   26   27 1
  45   27   28 2
  46   27   43 1
  47   28   29 1
  48   29   44 1
  49   29   45 1
  50   29   46 1

#	End of record

