#	Name: ASD03200010
#	Creating user name:	WinNT
#	Creation time:	15. 06. 2019 20:34

#	Modifying user name:	WinNT
#	Modification time:	15. 06. 2019 20:34

#	Program:	/corina/corina34_cracker 3.40 0067  02.08.2006

@<TRIPOS>MOLECULE
ASD03200010
  49   52    0    0    0
SMALL
NO_CHARGES


@<TRIPOS>ATOM
   1 C1             0.9662    -1.0294    -0.1621 C.3     
   2 N2            -0.0316     0.0364    -0.0039 N.3     
   3 C3             0.3001     0.9105     1.1285 C.3     
   4 C4             1.6484     1.5881     0.8738 C.3     
   5 C5             2.7278     0.5163     0.6990 C.3     
   6 C6             2.3344    -0.4097    -0.4553 C.3     
   7 C7            -1.3129    -0.4952     0.1338 C.ar    
   8 C8            -2.0181    -0.3608     1.3272 C.ar    
   9 C9            -3.2846    -0.9008     1.4239 C.ar    
  10 N10           -3.8306    -1.5386     0.4059 N.ar    
  11 C11           -3.1994    -1.6899    -0.7434 C.ar    
  12 C12           -1.9273    -1.1733    -0.9258 C.ar    
  13 N13           -1.2615    -1.3361    -2.1481 N.am    
  14 C14           -1.4475    -2.4573    -2.8727 C.2     
  15 C15           -0.8520    -2.5748    -4.2070 C.2     
  16 O16           -2.1100    -3.3723    -2.4190 O.2     
  17 C17           -1.0056    -3.6932    -4.9951 C.2     
  18 S18           -0.1696    -3.4514    -6.4671 S.3     
  19 C19            0.3426    -1.8531    -5.9397 C.2     
  20 N20           -0.1255    -1.6099    -4.7562 N.2     
  21 C21            1.1771    -0.9244    -6.7306 C.ar    
  22 N22            1.5026     0.2609    -6.2270 N.ar    
  23 C23            2.2446     1.1163    -6.8999 C.ar    
  24 C24            2.7146     0.8088    -8.1635 C.ar    
  25 C25            2.3983    -0.4194    -8.7282 C.ar    
  26 C26            1.6219    -1.3018    -7.9984 C.ar    
  27 N27            1.9897     2.4461     2.0163 N.3     
  28 N28           -1.7171    -4.8246    -4.6528 N.pl3   
  29 H29            1.0216    -1.6141     0.7561 H       
  30 H30            0.6766    -1.6781    -0.9887 H       
  31 H31           -0.4732     1.6706     1.2392 H       
  32 H32            0.3586     0.3166     2.0407 H       
  33 H33            1.5865     2.1932    -0.0307 H       
  34 H34            3.6818     0.9933     0.4744 H       
  35 H35            2.8170    -0.0641     1.6173 H       
  36 H36            3.0777    -1.2003    -0.5571 H       
  37 H37            2.2833     0.1640    -1.3807 H       
  38 H38           -1.5795     0.1588     2.1662 H       
  39 H39           -3.8369    -0.8001     2.3466 H       
  40 H40           -3.6817    -2.2191    -1.5519 H       
  41 H41           -0.6668    -0.6420    -2.4727 H       
  42 H42            2.4890     2.0713    -6.4587 H       
  43 H43            3.3219     1.5178    -8.7065 H       
  44 H44            2.7535    -0.6817    -9.7137 H       
  45 H45            1.3574    -2.2658    -8.4071 H       
  46 H46            2.8766     2.9049     1.8718 H       
  47 H47            1.2592     3.1190     2.1941 H       
  48 H48           -2.1618    -4.8760    -3.7923 H       
  49 H49           -1.7727    -5.5686    -5.2727 H       
@<TRIPOS>BOND
   1    1    2 1
   2    1    6 1
   3    1   29 1
   4    1   30 1
   5    2    3 1
   6    2    7 1
   7    3    4 1
   8    3   31 1
   9    3   32 1
  10    4    5 1
  11    4   27 1
  12    4   33 1
  13    5    6 1
  14    5   34 1
  15    5   35 1
  16    6   36 1
  17    6   37 1
  18    7    8 ar
  19    7   12 ar
  20    8    9 ar
  21    8   38 1
  22    9   10 ar
  23    9   39 1
  24   10   11 ar
  25   11   12 ar
  26   11   40 1
  27   12   13 1
  28   13   14 am
  29   13   41 1
  30   14   15 1
  31   14   16 2
  32   15   17 2
  33   15   20 1
  34   17   18 1
  35   17   28 1
  36   18   19 1
  37   19   20 2
  38   19   21 1
  39   21   22 ar
  40   21   26 ar
  41   22   23 ar
  42   23   24 ar
  43   23   42 1
  44   24   25 ar
  45   24   43 1
  46   25   26 ar
  47   25   44 1
  48   26   45 1
  49   27   46 1
  50   27   47 1
  51   28   48 1
  52   28   49 1

#	End of record

