#	Name: ASD05250101
#	Creating user name:	WinNT
#	Creation time:	15. 06. 2019 20:58

#	Modifying user name:	WinNT
#	Modification time:	15. 06. 2019 20:58

#	Program:	/corina/corina34_cracker 3.40 0067  02.08.2006

@<TRIPOS>MOLECULE
ASD05250101
  36   38    0    0    0
SMALL
NO_CHARGES


@<TRIPOS>ATOM
   1 C1            -0.0187     1.5258     0.0104 C.3     
   2 C2             0.0021    -0.0041     0.0020 C.3     
   3 O3             0.5662    -0.4660    -1.2270 O.3     
   4 C4            -1.4266    -0.5342     0.1385 C.3     
   5 O5            -1.9907    -0.0723     1.3675 O.3     
   6 C6            -1.4059    -2.0641     0.1301 C.3     
   7 C7            -2.8413    -2.5937     0.1410 C.3     
   8 C8             3.1869     1.1283    -2.8227 C.2     
   9 N9             2.2727     2.1542    -2.5561 N.3     
  10 C10            2.1966     2.2479    -1.1354 C.2     
  11 C11            3.3946     2.7308    -0.6983 C.2     
  12 C12            4.2141     2.9315    -1.9744 C.3     
  13 N13            4.3916     1.5373    -2.4902 N.2     
  14 N14            3.3493     2.8256     0.6527 N.pl3   
  15 C15            1.3951     2.0474    -0.0003 C.2     
  16 C16            2.1214     2.4069     1.0808 C.2     
  17 O17            5.3793     3.7540    -1.8850 O.3     
  18 N18            2.8756    -0.1066    -3.3417 N.pl3   
  19 N19            3.0904     3.3570    -2.8994 N.3     
  20 H20           -0.5459     1.8868    -0.8726 H       
  21 H21           -0.5289     1.8773     0.9072 H       
  22 H22            0.6044    -0.3639     0.8362 H       
  23 H23            0.0804    -0.1829    -2.0137 H       
  24 H24           -2.0289    -0.1745    -0.6956 H       
  25 H25           -1.5049    -0.3554     2.1543 H       
  26 H26           -0.8957    -2.4156    -0.7667 H       
  27 H27           -0.8787    -2.4252     1.0132 H       
  28 H28           -3.3684    -2.2326    -0.7421 H       
  29 H29           -2.8265    -3.6836     0.1350 H       
  30 H30           -3.3514    -2.2421     1.0378 H       
  31 H31            4.0697     3.1387     1.2217 H       
  32 H32            1.7884     2.3693     2.1075 H       
  33 H33            5.8597     3.8474    -2.7190 H       
  34 H34            1.9548    -0.3250    -3.5550 H       
  35 H35            3.5767    -0.7593    -3.4946 H       
  36 H36            3.3862     3.3300    -3.8637 H       
@<TRIPOS>BOND
   1    1    2 1
   2    1   15 1
   3    1   20 1
   4    1   21 1
   5    2    3 1
   6    2    4 1
   7    2   22 1
   8    3   23 1
   9    4    5 1
  10    4    6 1
  11    4   24 1
  12    5   25 1
  13    6    7 1
  14    6   26 1
  15    6   27 1
  16    7   28 1
  17    7   29 1
  18    7   30 1
  19    8    9 1
  20    8   13 2
  21    8   18 1
  22    9   10 1
  23    9   19 1
  24   10   11 2
  25   10   15 1
  26   11   12 1
  27   11   14 1
  28   12   13 1
  29   12   17 1
  30   12   19 1
  31   14   16 1
  32   14   31 1
  33   15   16 2
  34   16   32 1
  35   17   33 1
  36   18   34 1
  37   18   35 1
  38   19   36 1

#	End of record

