#	Name: ASD02508461
#	Creating user name:	WinNT
#	Creation time:	15. 06. 2019 20:24

#	Modifying user name:	WinNT
#	Modification time:	15. 06. 2019 20:24

#	Program:	/corina/corina34_cracker 3.40 0067  02.08.2006

@<TRIPOS>MOLECULE
ASD02508461
  40   42    0    0    0
SMALL
NO_CHARGES


@<TRIPOS>ATOM
   1 C1             1.1032     1.7985    -0.0193 C.2     
   2 C2             2.0775     0.7881     0.1164 C.2     
   3 C3             1.4504    -0.3986    -0.0059 C.2     
   4 N4             0.1205    -0.1591    -0.2129 N.pl3   
   5 C5            -0.0838     1.1925    -0.2197 C.2     
   6 C6            -0.8637    -1.1318    -0.3883 C.ar    
   7 N7            -0.5336    -2.4145    -0.4907 N.ar    
   8 C8            -2.2092    -0.7733    -0.4532 C.ar    
   9 C9            -3.1480    -1.7735    -0.6276 C.ar    
  10 N10           -2.7421    -3.0304    -0.7267 N.ar    
  11 C11           -1.4609    -3.3374    -0.6562 C.ar    
  12 S12            2.2130    -1.9844     0.0847 S.o2    
  13 N13            2.3183    -2.5668    -1.4619 N.am    
  14 C14            3.0548    -1.8694    -2.4221 C.ar    
  15 C15            4.3524    -1.4637    -2.1430 C.ar    
  16 C16            5.0800    -0.7717    -3.0986 C.ar    
  17 C17            4.5101    -0.4862    -4.3312 C.ar    
  18 C18            3.2177    -0.8908    -4.6076 C.ar    
  19 C19            2.4913    -1.5856    -3.6603 C.ar    
  20 O20            3.5469    -1.7638     0.5221 O.2     
  21 O21            1.3000    -2.8301     0.7706 O.2     
  22 Cl22          -0.9823    -5.0005    -0.7927 Cl      
  23 O23            6.3507    -0.3727    -2.8283 O.3     
  24 C24            7.0413     0.3359    -3.8593 C.3     
  25 C25            2.6020    -0.5785    -5.9471 C.3     
  26 F26            3.5244     0.1213    -6.7325 F       
  27 F27            2.2528    -1.7712    -6.5894 F       
  28 F28            1.4574     0.2045    -5.7631 F       
  29 H29            1.2760     2.8633     0.0325 H       
  30 H30            3.1333     0.9379     0.2872 H       
  31 H31           -1.0326     1.6890    -0.3606 H       
  32 H32           -2.5110     0.2602    -0.3689 H       
  33 H33           -4.1994    -1.5328    -0.6819 H       
  34 H34            1.8686    -3.3923    -1.7010 H       
  35 H35            4.7943    -1.6864    -1.1830 H       
  36 H36            5.0770     0.0533    -5.0755 H       
  37 H37            1.4817    -1.9010    -3.8789 H       
  38 H38            7.1143    -0.2932    -4.7464 H       
  39 H39            6.4941     1.2464    -4.1036 H       
  40 H40            8.0423     0.5951    -3.5143 H       
@<TRIPOS>BOND
   1    1    2 1
   2    1    5 2
   3    1   29 1
   4    2    3 2
   5    2   30 1
   6    3    4 1
   7    3   12 1
   8    4    5 1
   9    4    6 1
  10    5   31 1
  11    6    7 ar
  12    6    8 ar
  13    7   11 ar
  14    8    9 ar
  15    8   32 1
  16    9   10 ar
  17    9   33 1
  18   10   11 ar
  19   11   22 1
  20   12   13 am
  21   12   20 2
  22   12   21 2
  23   13   14 1
  24   13   34 1
  25   14   15 ar
  26   14   19 ar
  27   15   16 ar
  28   15   35 1
  29   16   17 ar
  30   16   23 1
  31   17   18 ar
  32   17   36 1
  33   18   19 ar
  34   18   25 1
  35   19   37 1
  36   23   24 1
  37   24   38 1
  38   24   39 1
  39   24   40 1
  40   25   26 1
  41   25   27 1
  42   25   28 1

#	End of record

