#	Name: ASD01915384
#	Creating user name:	WinNT
#	Creation time:	15. 06. 2019 20:05

#	Modifying user name:	WinNT
#	Modification time:	15. 06. 2019 20:05

#	Program:	/corina/corina34_cracker 3.40 0067  02.08.2006

@<TRIPOS>MOLECULE
ASD01915384
  46   49    0    0    0
SMALL
NO_CHARGES


@<TRIPOS>ATOM
   1 C1            -0.0168     1.3866     0.0097 C.ar    
   2 C2             0.0021    -0.0041     0.0020 C.ar    
   3 N3             1.1538    -0.6643    -0.0125 N.ar    
   4 C4             2.3131    -0.0368    -0.0202 C.ar    
   5 C5             2.3741     1.3425    -0.0134 C.ar    
   6 C6             1.1903     2.0772     0.0018 C.ar    
   7 C7             3.7068     2.0458    -0.0219 C.3     
   8 N8             4.7597     1.1277     0.4365 N.am    
   9 C9             5.7357     0.9459    -0.6533 C.3     
  10 C10            5.5946     2.2165    -1.5281 C.3     
  11 C11            4.0658     2.4728    -1.4607 C.3     
  12 C12            4.8225     0.5486     1.6519 C.2     
  13 O13            3.9603     0.7717     2.4752 O.2     
  14 C14            5.9641    -0.3759     1.9880 C.3     
  15 C15           -1.2765    -0.7566     0.0107 C.ar    
  16 C16           -1.2677    -2.1497     0.0031 C.ar    
  17 C17           -2.4614    -2.8452     0.0112 C.ar    
  18 C18           -3.6639    -2.1599     0.0268 C.ar    
  19 C19           -3.6773    -0.7767     0.0343 C.ar    
  20 C20           -2.4905    -0.0723     0.0322 C.ar    
  21 Cl21          -2.4532    -4.5811     0.0012 Cl      
  22 O22            1.2146     3.4345     0.0085 O.3     
  23 C23            5.8903    -0.9537     3.4112 C.3     
  24 C24            6.3695    -2.2859     2.8106 C.3     
  25 C25            5.7633    -1.8130     1.4787 C.3     
  26 H26           -0.9547     1.9220     0.0170 H       
  27 H27            3.2284    -0.6099    -0.0317 H       
  28 H28            3.6686     2.9200     0.6281 H       
  29 H29            6.7457     0.8734    -0.2498 H       
  30 H30            5.4938     0.0562    -1.2348 H       
  31 H31            6.1498     3.0503    -1.0985 H       
  32 H32            5.9135     2.0232    -2.5523 H       
  33 H33            3.5389     1.8561    -2.1888 H       
  34 H34            3.8446     3.5288    -1.6162 H       
  35 H35            6.9377     0.0454     1.7377 H       
  36 H36           -0.3297    -2.6848    -0.0094 H       
  37 H37           -4.5950    -2.7070     0.0327 H       
  38 H38           -4.6183    -0.2469     0.0465 H       
  39 H39           -2.5026     1.0076     0.0381 H       
  40 H40            1.2130     3.8322    -0.8730 H       
  41 H41            6.6037    -0.5047     4.1023 H       
  42 H42            4.8782    -0.9952     3.8137 H       
  43 H43            7.4544    -2.3880     2.7847 H       
  44 H44            5.8710    -3.1590     3.2316 H       
  45 H45            4.7165    -2.0894     1.3529 H       
  46 H46            6.3741    -2.0577     0.6097 H       
@<TRIPOS>BOND
   1    1    2 ar
   2    1    6 ar
   3    1   26 1
   4    2    3 ar
   5    2   15 1
   6    3    4 ar
   7    4    5 ar
   8    4   27 1
   9    5    6 ar
  10    5    7 1
  11    6   22 1
  12    7    8 1
  13    7   11 1
  14    7   28 1
  15    8    9 1
  16    8   12 am
  17    9   10 1
  18    9   29 1
  19    9   30 1
  20   10   11 1
  21   10   31 1
  22   10   32 1
  23   11   33 1
  24   11   34 1
  25   12   13 2
  26   12   14 1
  27   14   23 1
  28   14   25 1
  29   14   35 1
  30   15   16 ar
  31   15   20 ar
  32   16   17 ar
  33   16   36 1
  34   17   18 ar
  35   17   21 1
  36   18   19 ar
  37   18   37 1
  38   19   20 ar
  39   19   38 1
  40   20   39 1
  41   22   40 1
  42   23   24 1
  43   23   41 1
  44   23   42 1
  45   24   25 1
  46   24   43 1
  47   24   44 1
  48   25   45 1
  49   25   46 1

#	End of record

