#	Name: ASD04560113
#	Creating user name:	WinNT
#	Creation time:	15. 06. 2019 20:49

#	Modifying user name:	WinNT
#	Modification time:	15. 06. 2019 20:49

#	Program:	/corina/corina34_cracker 3.40 0067  02.08.2006

@<TRIPOS>MOLECULE
ASD04560113
  64   67    0    0    0
SMALL
NO_CHARGES


@<TRIPOS>ATOM
   1 C1            -0.0173     1.3666     0.0244 C.ar    
   2 C2             0.0010    -0.0041     0.0240 C.ar    
   3 C3             1.2157    -0.6859     0.0136 C.ar    
   4 C4             2.4151     0.0225     0.0034 C.ar    
   5 C5             2.4031     1.3933     0.0042 C.ar    
   6 C6             1.1852     2.0805     0.0143 C.ar    
   7 C7             1.1690     3.5549     0.0146 C.2     
   8 O8             2.2154     4.1746     0.0062 O.2     
   9 N9            -0.0055     4.2159     0.0243 N.am    
  10 C10           -0.0226     5.6108     0.1376 C.ar    
  11 C11           -0.9920     6.3506    -0.5268 C.ar    
  12 C12            0.9074     7.6331     1.0301 C.ar    
  13 C13            0.9263     6.2566     0.9193 C.ar    
  14 S14            1.2351    -2.4478     0.0137 S.3     
  15 C15           -1.0073     7.7269    -0.4133 C.ar    
  16 C16           -0.0567     8.3693     0.3621 C.ar    
  17 F17           -0.0734     9.7157     0.4718 F       
  18 C18            3.0069    -2.8364    -0.0017 C.3     
  19 C19            3.1932    -4.3318    -0.0030 C.2     
  20 C20            4.5489    -4.9045    -0.0147 C.ar    
  21 O21            2.2262    -5.0633     0.0055 O.2     
  22 C22            5.6688    -4.0665    -0.0247 C.ar    
  23 C23            6.9292    -4.6173    -0.0382 C.ar    
  24 C24            7.1032    -5.9977    -0.0424 C.ar    
  25 C25            6.0041    -6.8300    -0.0264 C.ar    
  26 C26            4.7286    -6.2882    -0.0102 C.ar    
  27 C27            8.5153    -6.5229    -0.0731 C.3     
  28 C28            8.5541    -7.9866     0.3605 C.3     
  29 C29            7.5191    -8.7628    -0.4622 C.3     
  30 C30            6.1248    -8.3317    -0.0124 C.3     
  31 C31            5.8713    -8.8450     1.4065 C.3     
  32 C32            5.0819    -8.9305    -0.9583 C.3     
  33 C33            9.0672    -6.4032    -1.4951 C.3     
  34 C34            9.3829    -5.6928     0.8752 C.3     
  35 H35           -0.9594     1.8947     0.0280 H       
  36 H36           -0.9274    -0.5560     0.0322 H       
  37 H37            3.3553    -0.5088    -0.0047 H       
  38 H38            3.3333     1.9420    -0.0029 H       
  39 H39           -0.8390     3.7249    -0.0472 H       
  40 H40           -1.7331     5.8500    -1.1322 H       
  41 H41            1.6452     8.1357     1.6379 H       
  42 H42            1.6784     5.6828     1.4404 H       
  43 H43           -1.7610     8.3026    -0.9299 H       
  44 H44            3.4641    -2.4125    -0.8957 H       
  45 H45            3.4796    -2.4122     0.8841 H       
  46 H46            5.5448    -2.9936    -0.0221 H       
  47 H47            7.7941    -3.9705    -0.0460 H       
  48 H48            3.8683    -6.9411    -0.0024 H       
  49 H49            9.5480    -8.3964     0.1808 H       
  50 H50            8.3117    -8.0620     1.4205 H       
  51 H51            7.6489    -8.5388    -1.5210 H       
  52 H52            7.6445    -9.8326    -0.2947 H       
  53 H53            6.6182    -8.4285     2.0824 H       
  54 H54            4.8767    -8.5392     1.7312 H       
  55 H55            5.9383    -9.9329     1.4168 H       
  56 H56            5.1530   -10.0180    -0.9360 H       
  57 H57            4.0851    -8.6250    -0.6405 H       
  58 H58            5.2647    -8.5752    -1.9724 H       
  59 H59            9.0598    -5.3570    -1.8008 H       
  60 H60           10.0888    -6.7823    -1.5214 H       
  61 H61            8.4461    -6.9852    -2.1760 H       
  62 H62            8.9875    -5.7670     1.8882 H       
  63 H63           10.4055    -6.0697     0.8558 H       
  64 H64            9.3739    -4.6503     0.5571 H       
@<TRIPOS>BOND
   1    1    2 ar
   2    1    6 ar
   3    1   35 1
   4    2    3 ar
   5    2   36 1
   6    3    4 ar
   7    3   14 1
   8    4    5 ar
   9    4   37 1
  10    5    6 ar
  11    5   38 1
  12    6    7 1
  13    7    8 2
  14    7    9 am
  15    9   10 1
  16    9   39 1
  17   10   11 ar
  18   10   13 ar
  19   11   15 ar
  20   11   40 1
  21   12   13 ar
  22   12   16 ar
  23   12   41 1
  24   13   42 1
  25   14   18 1
  26   15   16 ar
  27   15   43 1
  28   16   17 1
  29   18   19 1
  30   18   44 1
  31   18   45 1
  32   19   20 1
  33   19   21 2
  34   20   22 ar
  35   20   26 ar
  36   22   23 ar
  37   22   46 1
  38   23   24 ar
  39   23   47 1
  40   24   25 ar
  41   24   27 1
  42   25   26 ar
  43   25   30 1
  44   26   48 1
  45   27   28 1
  46   27   33 1
  47   27   34 1
  48   28   29 1
  49   28   49 1
  50   28   50 1
  51   29   30 1
  52   29   51 1
  53   29   52 1
  54   30   31 1
  55   30   32 1
  56   31   53 1
  57   31   54 1
  58   31   55 1
  59   32   56 1
  60   32   57 1
  61   32   58 1
  62   33   59 1
  63   33   60 1
  64   33   61 1
  65   34   62 1
  66   34   63 1
  67   34   64 1

#	End of record

