#	Name: ASD02038627
#	Creating user name:	WinNT
#	Creation time:	15. 06. 2019 20:17

#	Modifying user name:	WinNT
#	Modification time:	15. 06. 2019 20:17

#	Program:	/corina/corina34_cracker 3.40 0067  02.08.2006

@<TRIPOS>MOLECULE
ASD02038627
  61   62    0    0    0
SMALL
NO_CHARGES


@<TRIPOS>ATOM
   1 C1            -0.4608     1.3352    -1.5256 C.ar    
   2 C2            -0.4158    -0.0461    -1.4447 C.ar    
   3 C3            -1.5835    -0.7662    -1.2661 C.ar    
   4 C4            -2.7940    -0.1065    -1.1686 C.ar    
   5 C5            -2.8390     1.2730    -1.2498 C.ar    
   6 C6            -1.6728     1.9943    -1.4220 C.ar    
   7 C7            -4.0657    -0.8913    -0.9741 C.3     
   8 C8            -4.3323    -1.0678     0.5222 C.3     
   9 N9            -5.5686    -1.8308     0.7113 N.am    
  10 C10           -5.5252    -3.1755     0.7901 C.2     
  11 C11           -6.7969    -3.9603     0.9846 C.3     
  12 C12           -6.4709    -5.4541     1.0404 C.3     
  13 C13           -7.7620    -6.2509     1.2379 C.3     
  14 C14           -7.4409    -7.7223     1.2928 C.ar    
  15 C15           -7.1578    -8.3218     2.5063 C.ar    
  16 C16           -7.4356    -8.4710     0.1302 C.ar    
  17 C17           -7.1417    -9.8196     0.1769 C.ar    
  18 C18           -6.8513   -10.4239     1.3935 C.ar    
  19 C19           -6.8631    -9.6699     2.5602 C.ar    
  20 N20           -6.5537   -11.7876     1.4444 N.am    
  21 S21           -5.0771   -12.3326     0.9297 S.o2    
  22 O22           -5.1278   -13.7365     1.1434 O.2     
  23 O23           -4.9417   -11.7951    -0.3787 O.2     
  24 C24           -3.8893   -11.5589     2.0617 C.3     
  25 Cl25           1.0036     2.2403    -1.7498 Cl      
  26 Cl26           1.1050    -0.8742    -1.5679 Cl      
  27 C27           -6.8520    -1.1320     0.8147 C.3     
  28 C28           -7.4626    -0.9778    -0.5796 C.3     
  29 C29           -8.8030    -0.2480    -0.4716 C.3     
  30 C30           -9.4136    -0.0938    -1.8660 C.3     
  31 O31           -4.4627    -3.7540     0.7045 O.2     
  32 H32           -1.5491    -1.8438    -1.2033 H       
  33 H33           -3.7856     1.7875    -1.1739 H       
  34 H34           -1.7086     3.0718    -1.4854 H       
  35 H35           -4.8974    -0.3545    -1.4304 H       
  36 H36           -3.9640    -1.8701    -1.4429 H       
  37 H37           -3.5007    -1.6046     0.9786 H       
  38 H38           -4.4340    -0.0891     0.9910 H       
  39 H39           -7.2719    -3.6570     1.9177 H       
  40 H40           -7.4741    -3.7670     0.1526 H       
  41 H41           -5.9959    -5.7574     0.1073 H       
  42 H42           -5.7938    -5.6474     1.8724 H       
  43 H43           -8.2370    -5.9476     2.1709 H       
  44 H44           -8.4392    -6.0576     0.4059 H       
  45 H45           -7.1668    -7.7350     3.4129 H       
  46 H46           -7.6618    -8.0007    -0.8154 H       
  47 H47           -7.1380   -10.4039    -0.7314 H       
  48 H48           -6.6374   -10.1365     3.5077 H       
  49 H49           -7.2119   -12.4154     1.7812 H       
  50 H50           -4.1585   -11.7988     3.0903 H       
  51 H51           -2.8883   -11.9353     1.8508 H       
  52 H52           -3.9075   -10.4778     1.9241 H       
  53 H53           -7.5290    -1.7072     1.4463 H       
  54 H54           -6.6949    -0.1466     1.2535 H       
  55 H55           -6.7856    -0.4026    -1.2112 H       
  56 H56           -7.6198    -1.9631    -1.0184 H       
  57 H57           -9.4800    -0.8232     0.1600 H       
  58 H58           -8.6459     0.7373    -0.0328 H       
  59 H59          -10.3685     0.4261    -1.7890 H       
  60 H60           -8.7366     0.4814    -2.4975 H       
  61 H61           -9.5707    -1.0792    -2.3048 H       
@<TRIPOS>BOND
   1    1    2 ar
   2    1   25 1
   3    1    6 ar
   4    2    3 ar
   5    2   26 1
   6    3    4 ar
   7    3   32 1
   8    4    5 ar
   9    4    7 1
  10    5    6 ar
  11    5   33 1
  12    6   34 1
  13    7    8 1
  14    7   35 1
  15    7   36 1
  16    8    9 1
  17    8   37 1
  18    8   38 1
  19    9   10 am
  20    9   27 1
  21   10   11 1
  22   10   31 2
  23   11   12 1
  24   11   39 1
  25   11   40 1
  26   12   13 1
  27   12   41 1
  28   12   42 1
  29   13   14 1
  30   13   43 1
  31   13   44 1
  32   14   15 ar
  33   14   16 ar
  34   15   19 ar
  35   15   45 1
  36   16   17 ar
  37   16   46 1
  38   17   18 ar
  39   17   47 1
  40   18   19 ar
  41   18   20 1
  42   19   48 1
  43   20   21 am
  44   20   49 1
  45   21   22 2
  46   21   23 2
  47   21   24 1
  48   24   50 1
  49   24   51 1
  50   24   52 1
  51   27   28 1
  52   27   53 1
  53   27   54 1
  54   28   29 1
  55   28   55 1
  56   28   56 1
  57   29   30 1
  58   29   57 1
  59   29   58 1
  60   30   59 1
  61   30   60 1
  62   30   61 1

#	End of record

