#	Name: ASD03090934
#	Creating user name:	WinNT
#	Creation time:	15. 06. 2019 20:29

#	Modifying user name:	WinNT
#	Modification time:	15. 06. 2019 20:29

#	Program:	/corina/corina34_cracker 3.40 0067  02.08.2006

@<TRIPOS>MOLECULE
ASD03090934
  44   47    0    0    0
SMALL
NO_CHARGES


@<TRIPOS>ATOM
   1 N1            -0.0175     1.3431    -0.0865 N.am    
   2 C2             0.0012    -0.0044    -0.0682 C.2     
   3 O3             1.0649    -0.5994    -0.0778 O.2     
   4 N4            -1.1464    -0.6880    -0.0396 N.2     
   5 C5             1.2408     2.0927    -0.1178 C.3     
   6 C6             1.6486     2.3302    -1.5491 C.ar    
   7 C7             1.3098     3.5158    -2.1775 C.ar    
   8 N8             2.3341     1.4088    -2.2023 N.ar    
   9 N9             1.6673     3.7239    -3.4323 N.ar    
  10 C10            2.3482     2.8000    -4.0873 C.ar    
  11 C11            2.6915     1.6171    -3.4574 C.ar    
  12 C12           -1.2961     2.0582    -0.0810 C.3     
  13 S13            0.2595    -3.0387    -0.0302 S.3     
  14 C14           -1.1280    -2.0187    -0.0216 C.2     
  15 N15           -2.1987    -2.8518     0.0077 N.pl3   
  16 C16           -1.9391    -4.1884     0.0222 C.2     
  17 C17           -0.6633    -4.5510     0.0063 C.2     
  18 C18           -0.1140    -5.9542     0.0173 C.3     
  19 O19           -7.4524    -1.1574     0.0453 O.3     
  20 C20           -8.0539    -2.4331     0.3354 C.3     
  21 O21           -7.0845    -3.3848    -0.1417 O.3     
  22 C22           -5.8790    -2.7494    -0.0608 C.ar    
  23 C23           -6.1048    -1.3793     0.0543 C.ar    
  24 C24           -4.5832    -3.2363    -0.0763 C.ar    
  25 C25           -3.5113    -2.3592     0.0230 C.ar    
  26 C26           -3.7393    -0.9949     0.1377 C.ar    
  27 C27           -5.0326    -0.5079     0.1538 C.ar    
  28 F28           -8.2518    -2.5814     1.7124 F       
  29 F29           -9.2627    -2.5748    -0.3544 F       
  30 H30            1.1060     3.0503     0.3852 H       
  31 H31            2.0170     1.5212     0.3910 H       
  32 H32            0.7530     4.2708    -1.6423 H       
  33 H33            2.6401     2.9699    -5.1131 H       
  34 H34            3.2519     0.8639    -3.9914 H       
  35 H35           -1.6010     2.2496     0.9478 H       
  36 H36           -1.1851     3.0052    -0.6092 H       
  37 H37           -2.0536     1.4518    -0.5776 H       
  38 H38           -2.7344    -4.9188     0.0456 H       
  39 H39            0.9752    -5.9182    -0.0004 H       
  40 H40           -0.4460    -6.4672     0.9200 H       
  41 H41           -0.4741    -6.4923    -0.8596 H       
  42 H42           -4.4060    -4.2979    -0.1651 H       
  43 H43           -2.9052    -0.3132     0.2149 H       
  44 H44           -5.2076     0.5542     0.2426 H       
@<TRIPOS>BOND
   1    1    2 am
   2    1    5 1
   3    1   12 1
   4    2    3 2
   5    2    4 1
   6    4   14 2
   7    5    6 1
   8    5   30 1
   9    5   31 1
  10    6    7 ar
  11    6    8 ar
  12    7    9 ar
  13    7   32 1
  14    8   11 ar
  15    9   10 ar
  16   10   11 ar
  17   10   33 1
  18   11   34 1
  19   12   35 1
  20   12   36 1
  21   12   37 1
  22   13   14 1
  23   13   17 1
  24   14   15 1
  25   15   16 1
  26   15   25 1
  27   16   17 2
  28   16   38 1
  29   17   18 1
  30   18   39 1
  31   18   40 1
  32   18   41 1
  33   19   20 1
  34   19   23 1
  35   20   21 1
  36   20   28 1
  37   20   29 1
  38   21   22 1
  39   22   23 ar
  40   22   24 ar
  41   23   27 ar
  42   24   25 ar
  43   24   42 1
  44   25   26 ar
  45   26   27 ar
  46   26   43 1
  47   27   44 1

#	End of record

