#	Name: ASD01940496
#	Creating user name:	WinNT
#	Creation time:	15. 06. 2019 20:12

#	Modifying user name:	WinNT
#	Modification time:	15. 06. 2019 20:12

#	Program:	/corina/corina34_cracker 3.40 0067  02.08.2006

@<TRIPOS>MOLECULE
ASD01940496
  44   46    0    0    0
SMALL
NO_CHARGES


@<TRIPOS>ATOM
   1 N1             1.4546     2.6996    -2.4243 N.am    
   2 N2             1.9093     1.6951    -3.2850 N.2     
   3 C3             2.6976     0.8807    -2.6452 C.2     
   4 C4             2.7966     1.3442    -1.2641 C.ar    
   5 C5             3.4850     0.8843    -0.1293 C.ar    
   6 C6             3.3648     1.5714     1.0656 C.ar    
   7 C7             2.5712     2.7060     1.1451 C.ar    
   8 C8             1.8905     3.1679     0.0396 C.ar    
   9 C9             1.9945     2.4953    -1.1736 C.ar    
  10 C10            0.6271     3.7073    -2.7649 C.2     
  11 O11            0.2956     4.5283    -1.9335 O.2     
  12 O12            0.1680     3.8039    -4.0265 O.3     
  13 N13            4.0868     1.0926     2.2659 N.pl3   
  14 O14            4.0541     1.7421     3.2958 O.2     
  15 O15            4.7137     0.0492     2.2237 O.2     
  16 N16            4.2826    -0.2556    -0.2063 N.pl3   
  17 C17            3.7589    -1.5013     0.1546 C.ar    
  18 C18            4.5121    -2.6558    -0.0347 C.ar    
  19 C19            3.9910    -3.8849     0.3239 C.ar    
  20 C20            2.7220    -3.9669     0.8697 C.ar    
  21 C21            1.9716    -2.8207     1.0583 C.ar    
  22 C22            2.4888    -1.5881     0.7079 C.ar    
  23 I23            1.9357    -5.8317     1.4111 I       
  24 F24            5.7506    -2.5757    -0.5684 F       
  25 C25           -0.7194     4.9146    -4.3218 C.3     
  26 C26            0.0052     6.2336    -4.0459 C.3     
  27 C27           -1.1341     4.8587    -5.7935 C.3     
  28 C28           -1.9643     4.8219    -3.4373 C.3     
  29 H29            3.1909     0.0151    -3.0620 H       
  30 H30            2.4854     3.2332     2.0838 H       
  31 H31            1.2759     4.0527     0.1151 H       
  32 H32            5.2011    -0.1852    -0.5102 H       
  33 H33            4.5745    -4.7819     0.1775 H       
  34 H34            0.9813    -2.8886     1.4839 H       
  35 H35            1.9032    -0.6934     0.8598 H       
  36 H36            0.8922     6.2996    -4.6761 H       
  37 H37           -0.6609     7.0674    -4.2676 H       
  38 H38            0.3007     6.2734    -2.9975 H       
  39 H39           -1.6503     3.9191    -5.9900 H       
  40 H40           -1.8002     5.6925    -6.0152 H       
  41 H41           -0.2472     4.9248    -6.4236 H       
  42 H42           -1.6689     4.8618    -2.3888 H       
  43 H43           -2.6305     5.6557    -3.6590 H       
  44 H44           -2.4805     3.8823    -3.6338 H       
@<TRIPOS>BOND
   1    1    2 1
   2    1    9 1
   3    1   10 am
   4    2    3 2
   5    3    4 1
   6    3   29 1
   7    4    5 ar
   8    4    9 ar
   9    5    6 ar
  10    5   16 1
  11    6    7 ar
  12    6   13 1
  13    7    8 ar
  14    7   30 1
  15    8    9 ar
  16    8   31 1
  17   10   11 2
  18   10   12 1
  19   12   25 1
  20   13   14 2
  21   13   15 2
  22   16   17 1
  23   16   32 1
  24   17   18 ar
  25   17   22 ar
  26   18   19 ar
  27   18   24 1
  28   19   20 ar
  29   19   33 1
  30   20   21 ar
  31   20   23 1
  32   21   22 ar
  33   21   34 1
  34   22   35 1
  35   25   26 1
  36   25   28 1
  37   25   27 1
  38   26   36 1
  39   26   37 1
  40   26   38 1
  41   27   39 1
  42   27   40 1
  43   27   41 1
  44   28   42 1
  45   28   43 1
  46   28   44 1

#	End of record

