#	Name: ASD03092336
#	Creating user name:	WinNT
#	Creation time:	15. 06. 2019 20:32

#	Modifying user name:	WinNT
#	Modification time:	15. 06. 2019 20:32

#	Program:	/corina/corina34_cracker 3.40 0067  02.08.2006

@<TRIPOS>MOLECULE
ASD03092336
  61   63    0    0    0
SMALL
NO_CHARGES


@<TRIPOS>ATOM
   1 C1             0.3377     2.0153     0.1445 C.2     
   2 C2             0.5540     0.5261     0.2242 C.3     
   3 C3             2.0547     0.2278     0.2208 C.3     
   4 C4             2.6909     0.7978     1.4901 C.3     
   5 O5             1.2900     2.7644     0.0902 O.2     
   6 N6            -0.9141     2.5145     0.1278 N.am    
   7 C7             2.2737    -1.2858     0.1759 C.3     
   8 C8            -1.1244     3.9623     0.0503 C.3     
   9 S9            -4.9835     4.7562    -0.6387 S.3     
  10 C10           -4.5799     4.6083     1.0157 C.2     
  11 N11           -3.3134     4.3515     1.1494 N.2     
  12 C12           -2.6025     4.2557     0.0469 C.2     
  13 C13           -3.3091     4.4424    -1.0876 C.2     
  14 C14           -2.5485     5.3138    -4.6606 C.ar    
  15 C15           -3.0708     5.4006    -3.3883 C.ar    
  16 C16           -2.7735     4.3920    -2.4620 C.ar    
  17 C17           -1.9532     3.3345    -2.8772 C.ar    
  18 C18           -1.4749     3.3281    -4.1696 C.ar    
  19 N19           -1.7794     4.2994    -5.0103 N.ar    
  20 C20           -0.5917     2.1969    -4.6294 C.3     
  21 C21           -2.8652     6.3883    -5.6688 C.3     
  22 N22           -5.4737     4.7431     2.0624 N.3     
  23 C23           -6.8270     5.0318     1.5657 C.3     
  24 C24           -7.7695     5.2321     2.7555 C.3     
  25 O25           -7.7344     4.0684     3.5861 O.3     
  26 C26           -6.4316     3.7583     4.0879 C.3     
  27 C27           -5.4755     3.5431     2.9116 C.3     
  28 C28           -6.4991     2.4835     4.9312 C.3     
  29 C29           -9.1951     5.4535     2.2462 C.3     
  30 H30            0.1096     0.1431     1.1429 H       
  31 H31            0.0859     0.0444    -0.6342 H       
  32 H32            2.5145     0.6875    -0.6541 H       
  33 H33            2.5348     1.8761     1.5221 H       
  34 H34            2.2311     0.3381     2.3650 H       
  35 H35            3.7600     0.5853     1.4877 H       
  36 H36           -1.6758     1.9152     0.1672 H       
  37 H37            1.8204    -1.6919    -0.7284 H       
  38 H38            3.3428    -1.4983     0.1735 H       
  39 H39            1.8139    -1.7455     1.0508 H       
  40 H40           -0.6604     4.4434     0.9113 H       
  41 H41           -0.6757     4.3460    -0.8660 H       
  42 H42           -3.6989     6.2336    -3.1092 H       
  43 H43           -1.6994     2.5369    -2.1947 H       
  44 H44           -1.2085     1.4000    -5.0448 H       
  45 H45            0.0956     2.5601    -5.3935 H       
  46 H46           -0.0232     1.8125    -3.7826 H       
  47 H47           -2.1141     7.1759    -5.6083 H       
  48 H48           -2.8615     5.9589    -6.6706 H       
  49 H49           -3.8488     6.8071    -5.4566 H       
  50 H50           -6.8069     5.9383     0.9607 H       
  51 H51           -7.1781     4.1966     0.9598 H       
  52 H52           -7.4491     6.1002     3.3315 H       
  53 H53           -6.0723     4.5835     4.7026 H       
  54 H54           -5.8051     2.6841     2.3272 H       
  55 H55           -4.4690     3.3627     3.2891 H       
  56 H56           -6.8566     1.6586     4.3149 H       
  57 H57           -5.5058     2.2476     5.3133 H       
  58 H58           -7.1828     2.6360     5.7663 H       
  59 H59           -9.5150     4.5840     1.6720 H       
  60 H60           -9.8657     5.5960     3.0937 H       
  61 H61           -9.2204     6.3383     1.6101 H       
@<TRIPOS>BOND
   1    1    2 1
   2    1    5 2
   3    1    6 am
   4    2    3 1
   5    2   30 1
   6    2   31 1
   7    3    4 1
   8    3    7 1
   9    3   32 1
  10    4   33 1
  11    4   34 1
  12    4   35 1
  13    6    8 1
  14    6   36 1
  15    7   37 1
  16    7   38 1
  17    7   39 1
  18    8   12 1
  19    8   40 1
  20    8   41 1
  21    9   10 1
  22    9   13 1
  23   10   11 2
  24   10   22 1
  25   11   12 1
  26   12   13 2
  27   13   16 1
  28   14   15 ar
  29   14   19 ar
  30   14   21 1
  31   15   16 ar
  32   15   42 1
  33   16   17 ar
  34   17   18 ar
  35   17   43 1
  36   18   19 ar
  37   18   20 1
  38   20   44 1
  39   20   45 1
  40   20   46 1
  41   21   47 1
  42   21   48 1
  43   21   49 1
  44   22   23 1
  45   22   27 1
  46   23   24 1
  47   23   50 1
  48   23   51 1
  49   24   25 1
  50   24   29 1
  51   24   52 1
  52   25   26 1
  53   26   27 1
  54   26   28 1
  55   26   53 1
  56   27   54 1
  57   27   55 1
  58   28   56 1
  59   28   57 1
  60   28   58 1
  61   29   59 1
  62   29   60 1
  63   29   61 1

#	End of record

