#	Name: ASD03570054
#	Creating user name:	WinNT
#	Creation time:	15. 06. 2019 20:43

#	Modifying user name:	WinNT
#	Modification time:	15. 06. 2019 20:43

#	Program:	/corina/corina34_cracker 3.40 0067  02.08.2006

@<TRIPOS>MOLECULE
ASD03570054
  56   59    0    0    0
SMALL
NO_CHARGES


@<TRIPOS>ATOM
   1 C1             0.8506     0.6443    -2.2919 C.ar    
   2 C2             1.1274    -0.7086    -2.2601 C.ar    
   3 C3             2.2492    -1.1729    -1.5977 C.ar    
   4 C4             3.0932    -0.2822    -0.9656 C.ar    
   5 C5             2.8154     1.0800    -0.9946 C.ar    
   6 C6             1.6932     1.5450    -1.6617 C.ar    
   7 C7             1.3666     3.0138    -1.7230 C.3     
   8 N8             3.6798     1.9667    -0.3394 N.am    
   9 C9             3.5622     3.4055    -0.6130 C.3     
  10 C10            2.0718     3.7665    -0.5949 C.3     
  11 N11           -0.0815     3.1931    -1.5924 N.pl3   
  12 C12           -0.9014     3.0980    -2.7192 C.ar    
  13 C13            4.6037     1.5076     0.5279 C.2     
  14 O14            5.5321     2.2187     0.8599 O.2     
  15 C15            4.4880     0.1394     1.0753 C.ar    
  16 C16            5.6365    -0.5914     1.3841 C.ar    
  17 C17            5.5215    -1.8676     1.8952 C.ar    
  18 C18            4.2714    -2.4236     2.1013 C.ar    
  19 C19            3.1290    -1.7047     1.7969 C.ar    
  20 C20            3.2298    -0.4252     1.2911 C.ar    
  21 N21            4.1556    -3.7936     2.6495 N.pl3   
  22 O22            5.1594    -4.4290     2.9181 O.2     
  23 O23            3.0564    -4.2856     2.8321 O.2     
  24 C24            4.3014     4.2001     0.4654 C.3     
  25 C25            1.9065     5.2733    -0.8024 C.3     
  26 C26            3.7174     3.8618     1.8385 C.3     
  27 C27           -1.1595     2.7342    -5.0755 C.ar    
  28 C28           -0.3459     2.8279    -3.9635 C.ar    
  29 C29           -2.2747     3.2677    -2.5972 C.ar    
  30 C30           -3.0825     3.1726    -3.7133 C.ar    
  31 C31           -2.5257     2.9084    -4.9513 C.ar    
  32 H32           -0.0243     1.0018    -2.8144 H       
  33 H33            0.4660    -1.4055    -2.7534 H       
  34 H34            2.4644    -2.2310    -1.5747 H       
  35 H35            3.9695    -0.6434    -0.4480 H       
  36 H36            1.6932     3.4152    -2.6823 H       
  37 H37            3.9839     3.6306    -1.5926 H       
  38 H38            1.6387     3.4783     0.3629 H       
  39 H39           -0.4710     3.3777    -0.7235 H       
  40 H40            6.6129    -0.1589     1.2230 H       
  41 H41            6.4093    -2.4342     2.1345 H       
  42 H42            2.1562    -2.1446     1.9599 H       
  43 H43            2.3374     0.1348     1.0539 H       
  44 H44            5.3599     3.9404     0.4468 H       
  45 H45            4.1856     5.2669     0.2742 H       
  46 H46            0.8463     5.5263    -0.7995 H       
  47 H47            2.4099     5.8083     0.0028 H       
  48 H48            2.3456     5.5587    -1.7584 H       
  49 H49            2.6430     4.0458     1.8318 H       
  50 H50            3.9048     2.8121     2.0645 H       
  51 H51            4.1882     4.4865     2.5976 H       
  52 H52           -0.7282     2.5246    -6.0432 H       
  53 H53            0.7210     2.6918    -4.0612 H       
  54 H54           -2.7102     3.4734    -1.6306 H       
  55 H55           -4.1502     3.3044    -3.6192 H       
  56 H56           -3.1597     2.8345    -5.8225 H       
@<TRIPOS>BOND
   1    1    2 ar
   2    1    6 ar
   3    1   32 1
   4    2    3 ar
   5    2   33 1
   6    3    4 ar
   7    3   34 1
   8    4    5 ar
   9    4   35 1
  10    5    6 ar
  11    5    8 1
  12    6    7 1
  13    7   10 1
  14    7   11 1
  15    7   36 1
  16    8    9 1
  17    8   13 am
  18    9   10 1
  19    9   24 1
  20    9   37 1
  21   10   25 1
  22   10   38 1
  23   11   12 1
  24   11   39 1
  25   12   29 ar
  26   12   28 ar
  27   13   14 2
  28   13   15 1
  29   15   16 ar
  30   15   20 ar
  31   16   17 ar
  32   16   40 1
  33   17   18 ar
  34   17   41 1
  35   18   19 ar
  36   18   21 1
  37   19   20 ar
  38   19   42 1
  39   20   43 1
  40   21   22 2
  41   21   23 2
  42   24   26 1
  43   24   44 1
  44   24   45 1
  45   25   46 1
  46   25   47 1
  47   25   48 1
  48   26   49 1
  49   26   50 1
  50   26   51 1
  51   27   28 ar
  52   27   31 ar
  53   27   52 1
  54   28   53 1
  55   29   30 ar
  56   29   54 1
  57   30   31 ar
  58   30   55 1
  59   31   56 1

#	End of record

