#	Name: ASD02198091
#	Creating user name:	WinNT
#	Creation time:	15. 06. 2019 20:18

#	Modifying user name:	WinNT
#	Modification time:	15. 06. 2019 20:18

#	Program:	/corina/corina34_cracker 3.40 0067  02.08.2006

@<TRIPOS>MOLECULE
ASD02198091
  46   48    0    0    0
SMALL
NO_CHARGES


@<TRIPOS>ATOM
   1 C1            -0.2041     1.4427    -0.4676 C.2     
   2 C2            -0.0570     0.0736    -0.3882 C.2     
   3 C3            -1.1515    -0.8160    -0.1407 C.1     
   4 S4             1.2936     2.1987    -0.7713 S.3     
   5 C5             2.1403     0.6602    -0.7944 C.2     
   6 C6             1.2522    -0.3658    -0.5705 C.2     
   7 C7             3.5221     0.5009    -1.0102 C.2     
   8 C8             4.3554     1.6713    -1.3653 C.ar    
   9 O9             4.0325    -0.6015    -0.9048 O.2     
  10 N10            1.6221    -1.7008    -0.5305 N.pl3   
  11 N11           -1.3994     2.1083    -0.3264 N.pl3   
  12 N12           -2.0198    -1.5217     0.0556 N.1     
  13 C13            4.3117     2.1965    -2.6572 C.ar    
  14 C14           -1.4222     3.5073    -0.2981 C.ar    
  15 C15           -2.4814     4.1968    -0.8742 C.ar    
  16 C16           -0.3886     4.2070     0.3110 C.ar    
  17 C17           -2.5030     5.5771    -0.8459 C.ar    
  18 C18           -0.4119     5.5873     0.3384 C.ar    
  19 C19           -1.4671     6.2753    -0.2427 C.ar    
  20 O20           -1.4891     7.6346    -0.2157 O.3     
  21 C21           -2.6058     8.2778    -0.8331 C.3     
  22 C22            5.0911     3.2878    -2.9818 C.ar    
  23 C23            5.9150     3.8609    -2.0296 C.ar    
  24 C24            5.9629     3.3448    -0.7465 C.ar    
  25 C25            5.1840     2.2580    -0.4076 C.ar    
  26 C26            6.7643     5.0521    -2.3914 C.3     
  27 C27            3.4155     1.5728    -3.6959 C.3     
  28 H28            2.5496    -1.9513    -0.6642 H       
  29 H29            0.9536    -2.3847    -0.3687 H       
  30 H30           -2.2266     1.6080    -0.2465 H       
  31 H31           -3.2876     3.6534    -1.3445 H       
  32 H32            0.4330     3.6715     0.7634 H       
  33 H33           -3.3266     6.1134    -1.2938 H       
  34 H34            0.3916     6.1315     0.8123 H       
  35 H35           -2.4992     9.3587    -0.7409 H       
  36 H36           -2.6447     8.0052    -1.8877 H       
  37 H37           -3.5254     7.9602    -0.3416 H       
  38 H38            5.0582     3.6953    -3.9814 H       
  39 H39            6.6084     3.7965    -0.0078 H       
  40 H40            5.2220     1.8563     0.5942 H       
  41 H41            6.2065     5.9683    -2.1975 H       
  42 H42            7.6735     5.0461    -1.7902 H       
  43 H43            7.0271     5.0034    -3.4481 H       
  44 H44            2.4642     2.1042    -3.7214 H       
  45 H45            3.8935     1.6362    -4.6735 H       
  46 H46            3.2407     0.5267    -3.4441 H       
@<TRIPOS>BOND
   1    1    2 2
   2    1    4 1
   3    1   11 1
   4    2    3 1
   5    2    6 1
   6    3   12 3
   7    4    5 1
   8    5    6 2
   9    5    7 1
  10    6   10 1
  11    7    8 1
  12    7    9 2
  13    8   13 ar
  14    8   25 ar
  15   10   28 1
  16   10   29 1
  17   11   14 1
  18   11   30 1
  19   13   22 ar
  20   13   27 1
  21   14   15 ar
  22   14   16 ar
  23   15   17 ar
  24   15   31 1
  25   16   18 ar
  26   16   32 1
  27   17   19 ar
  28   17   33 1
  29   18   19 ar
  30   18   34 1
  31   19   20 1
  32   20   21 1
  33   21   35 1
  34   21   36 1
  35   21   37 1
  36   22   23 ar
  37   22   38 1
  38   23   24 ar
  39   23   26 1
  40   24   25 ar
  41   24   39 1
  42   25   40 1
  43   26   41 1
  44   26   42 1
  45   26   43 1
  46   27   44 1
  47   27   45 1
  48   27   46 1

#	End of record

