#	Name: ASD03320236
#	Creating user name:	WinNT
#	Creation time:	15. 06. 2019 20:36

#	Modifying user name:	WinNT
#	Modification time:	15. 06. 2019 20:36

#	Program:	/corina/corina34_cracker 3.40 0067  02.08.2006

@<TRIPOS>MOLECULE
ASD03320236
  45   47    0    0    0
SMALL
NO_CHARGES


@<TRIPOS>ATOM
   1 N1            -0.0158     1.3146     0.0093 N.ar    
   2 C2             0.0021    -0.0041     0.0020 C.ar    
   3 C3             1.1988    -0.6947    -0.0131 C.ar    
   4 C4             2.3893     0.0165    -0.0207 C.ar    
   5 C5             2.3306     1.4015    -0.0127 C.ar    
   6 C6             1.0962     2.0232     0.0025 C.ar    
   7 C7             1.2102    -2.2016    -0.0208 C.3     
   8 C8             1.1999    -2.7043    -1.4658 C.3     
   9 C9             1.0203     3.5283     0.0108 C.3     
  10 C10            0.1573     4.0019    -1.1605 C.3     
  11 O11            0.0854     5.4291    -1.1526 O.3     
  12 C12           -0.6485     6.0153    -2.1347 C.ar    
  13 C13           -2.1434     7.2085    -4.1335 C.ar    
  14 C14           -2.0369     5.8310    -4.0802 C.ar    
  15 C15           -1.2911     5.2327    -3.0831 C.ar    
  16 C16           -0.7612     7.3970    -2.1873 C.ar    
  17 C17           -1.5082     7.9904    -3.1864 C.ar    
  18 C18           -2.9577     7.8585    -5.2222 C.3     
  19 C19           -4.4038     8.0206    -4.7497 C.3     
  20 N20           -6.2420     7.9149    -6.2540 N.am    
  21 C21           -5.2475     8.6726    -5.8232 C.2     
  22 S22           -5.1989     6.3923    -4.5351 S.3     
  23 C23           -6.4460     6.6923    -5.7589 C.2     
  24 O24           -5.0320     9.7872    -6.2488 O.2     
  25 O25           -7.3280     5.9230    -6.0879 O.2     
  26 H26           -0.9294    -0.5505     0.0083 H       
  27 H27            3.3397    -0.4965    -0.0321 H       
  28 H28            3.2379     1.9873    -0.0178 H       
  29 H29            2.1078    -2.5608     0.4825 H       
  30 H30            0.3280    -2.5742     0.4998 H       
  31 H31            0.3023    -2.3451    -1.9692 H       
  32 H32            2.0821    -2.3317    -1.9864 H       
  33 H33            1.2081    -3.7943    -1.4714 H       
  34 H34            0.5770     3.8646     0.9480 H       
  35 H35            2.0236     3.9432    -0.0861 H       
  36 H36            0.6006     3.6656    -2.0977 H       
  37 H37           -0.8460     3.5870    -1.0636 H       
  38 H38           -2.5342     5.2223    -4.8209 H       
  39 H39           -1.2080     4.1567    -3.0421 H       
  40 H40           -0.2656     8.0082    -1.4476 H       
  41 H41           -1.5925     9.0662    -3.2304 H       
  42 H42           -2.5391     8.8380    -5.4535 H       
  43 H43           -2.9350     7.2337    -6.1151 H       
  44 H44           -4.4433     8.5939    -3.8235 H       
  45 H45           -6.8348     8.2542    -6.9428 H       
@<TRIPOS>BOND
   1    1    2 ar
   2    1    6 ar
   3    2    3 ar
   4    2   26 1
   5    3    4 ar
   6    3    7 1
   7    4    5 ar
   8    4   27 1
   9    5    6 ar
  10    5   28 1
  11    6    9 1
  12    7    8 1
  13    7   29 1
  14    7   30 1
  15    8   31 1
  16    8   32 1
  17    8   33 1
  18    9   10 1
  19    9   34 1
  20    9   35 1
  21   10   11 1
  22   10   36 1
  23   10   37 1
  24   11   12 1
  25   12   16 ar
  26   12   15 ar
  27   13   14 ar
  28   13   17 ar
  29   13   18 1
  30   14   15 ar
  31   14   38 1
  32   15   39 1
  33   16   17 ar
  34   16   40 1
  35   17   41 1
  36   18   19 1
  37   18   42 1
  38   18   43 1
  39   19   22 1
  40   19   21 1
  41   19   44 1
  42   20   21 am
  43   20   23 am
  44   20   45 1
  45   21   24 2
  46   22   23 1
  47   23   25 2

#	End of record

