#	Name: ASD01881326
#	Creating user name:	WinNT
#	Creation time:	15. 06. 2019 19:42

#	Modifying user name:	WinNT
#	Modification time:	15. 06. 2019 19:42

#	Program:	/corina/corina34_cracker 3.40 0067  02.08.2006

@<TRIPOS>MOLECULE
ASD01881326
  49   53    0    0    0
SMALL
NO_CHARGES


@<TRIPOS>ATOM
   1 C1            -0.1763     1.1858    -0.5175 C.2     
   2 C2            -0.1024    -0.2122    -0.4313 C.2     
   3 C3            -1.2973    -0.9620    -0.4388 C.2     
   4 C4            -2.4957    -0.3555    -0.5273 C.2     
   5 N5            -2.6135     1.0014    -0.6130 N.pl3   
   6 C6            -1.5012     1.8036    -0.6056 C.2     
   7 C7            -3.7003     1.8313    -0.7100 C.2     
   8 C8            -3.2322     3.0960    -0.7645 C.2     
   9 N9            -1.8971     3.0602    -0.6991 N.2     
  10 C10            1.2076    -0.8896    -0.3346 C.ar    
  11 C11            1.5471    -1.5981     0.8180 C.ar    
  12 C12            2.7709    -2.2324     0.9111 C.ar    
  13 C13            3.6653    -2.1717    -0.1478 C.ar    
  14 C14            3.3272    -1.4596    -1.3013 C.ar    
  15 C15            2.1100    -0.8283    -1.3996 C.ar    
  16 C16           -5.1468     1.4103    -0.7489 C.3     
  17 C17            3.1004    -2.9716     2.1834 C.3     
  18 C18            4.2823    -3.9133     1.9415 C.3     
  19 O19            5.2979    -3.1805     1.2444 O.3     
  20 N20            4.9027    -2.8091    -0.1114 N.3     
  21 C21            5.9370    -1.9882    -0.7551 C.3     
  22 C22            6.0724    -0.6602    -0.0076 C.3     
  23 C23            7.1843     0.2915    -0.4539 C.3     
  24 C24            5.7238     0.6190    -0.7712 C.3     
  25 C25            1.0105     1.9871    -0.5135 C.1     
  26 N26            1.9520     2.6228    -0.5103 N.1     
  27 C27           -5.6080     1.3037    -2.2038 C.3     
  28 F28           -4.8277     0.3539    -2.8719 F       
  29 F29           -6.9508     0.9128    -2.2399 F       
  30 F30           -5.4671     2.5468    -2.8300 F       
  31 H31           -1.2498    -2.0390    -0.3728 H       
  32 H32           -3.3903    -0.9605    -0.5311 H       
  33 H33           -3.8355     3.9883    -0.8439 H       
  34 H34            0.8503    -1.6508     1.6414 H       
  35 H35            4.0256    -1.4083    -2.1235 H       
  36 H36            1.8552    -0.2798    -2.2943 H       
  37 H37           -5.2566     0.4418    -0.2610 H       
  38 H38           -5.7547     2.1503    -0.2283 H       
  39 H39            3.3613    -2.2549     2.9621 H       
  40 H40            2.2338    -3.5515     2.5008 H       
  41 H41            4.6727    -4.2671     2.8957 H       
  42 H42            3.9599    -4.7614     1.3375 H       
  43 H43            6.8892    -2.5181    -0.7300 H       
  44 H44            5.6557    -1.7954    -1.7904 H       
  45 H45            5.8345    -0.6927     1.0556 H       
  46 H46            7.6775     0.8853     0.3157 H       
  47 H47            7.8192    -0.0286    -1.2800 H       
  48 H48            5.3979     0.5145    -1.8060 H       
  49 H49            5.2562     1.4283    -0.2103 H       
@<TRIPOS>BOND
   1    1    2 2
   2    1   25 1
   3    1    6 1
   4    2    3 1
   5    2   10 1
   6    3    4 2
   7    3   31 1
   8    4    5 1
   9    4   32 1
  10    5    6 1
  11    5    7 1
  12    6    9 2
  13    7    8 2
  14    7   16 1
  15    8    9 1
  16    8   33 1
  17   10   11 ar
  18   10   15 ar
  19   11   12 ar
  20   11   34 1
  21   12   13 ar
  22   12   17 1
  23   13   14 ar
  24   13   20 1
  25   14   15 ar
  26   14   35 1
  27   15   36 1
  28   16   27 1
  29   16   37 1
  30   16   38 1
  31   17   18 1
  32   17   39 1
  33   17   40 1
  34   18   19 1
  35   18   41 1
  36   18   42 1
  37   19   20 1
  38   20   21 1
  39   21   22 1
  40   21   43 1
  41   21   44 1
  42   22   23 1
  43   22   24 1
  44   22   45 1
  45   23   24 1
  46   23   46 1
  47   23   47 1
  48   24   48 1
  49   24   49 1
  50   25   26 3
  51   27   28 1
  52   27   29 1
  53   27   30 1

#	End of record

