#	Name: ASD02500238
#	Creating user name:	WinNT
#	Creation time:	15. 06. 2019 20:22

#	Modifying user name:	WinNT
#	Modification time:	15. 06. 2019 20:22

#	Program:	/corina/corina34_cracker 3.40 0067  02.08.2006

@<TRIPOS>MOLECULE
ASD02500238
  63   67    0    0    0
SMALL
NO_CHARGES


@<TRIPOS>ATOM
   1 N1            -1.8712     4.9743     1.5383 N.ar    
   2 C2            -3.0040     5.4664     1.9775 C.ar    
   3 C3            -3.5668     5.0491     3.1819 C.ar    
   4 C4            -2.9354     4.1027     3.9376 C.ar    
   5 C5            -1.7193     3.5762     3.4625 C.ar    
   6 C6            -1.0131     2.6011     4.1846 C.ar    
   7 C7             0.1603     2.1169     3.6914 C.ar    
   8 C8             0.6702     2.5768     2.4792 C.ar    
   9 C9             0.0117     3.5213     1.7534 C.ar    
  10 C10           -1.2026     4.0455     2.2293 C.ar    
  11 S11            0.6795     4.0857     0.2236 S.o2    
  12 O12            0.6364     5.5054     0.2664 O.2     
  13 O13            1.8771     3.3504     0.0130 O.2     
  14 N14           -0.3701     3.6218    -0.9703 N.am    
  15 C15           -0.5878     2.2709    -1.2185 C.ar    
  16 C16           -1.8842     1.7961    -1.3771 C.ar    
  17 C17           -2.1008     0.4523    -1.6244 C.ar    
  18 C18           -1.0065    -0.4230    -1.7135 C.ar    
  19 C19            0.2921     0.0704    -1.5515 C.ar    
  20 C20            0.4951     1.3991    -1.3130 C.ar    
  21 O21           -3.3640    -0.0175    -1.7797 O.3     
  22 C22           -4.4267     0.9322    -1.6754 C.3     
  23 C23           -1.2254    -1.8550    -1.9759 C.2     
  24 O24           -1.9651    -2.4990    -1.2565 O.2     
  25 N25           -0.6061    -2.4524    -3.0132 N.am    
  26 C26           -0.8938    -3.8537    -3.3499 C.3     
  27 C27           -1.3289    -3.9254    -4.8188 C.3     
  28 N28           -0.3540    -3.1870    -5.6339 N.am    
  29 C29           -0.0663    -1.7857    -5.2972 C.3     
  30 C30            0.3646    -1.7123    -3.8317 C.3     
  31 C31            0.2653    -3.7844    -6.6712 C.2     
  32 C32            0.0393    -5.2206    -6.9395 C.ar    
  33 C33           -1.2572    -5.7487    -6.9410 C.ar    
  34 C34           -1.4146    -7.1013    -7.1981 C.ar    
  35 C35           -0.2939    -7.8789    -7.4428 C.ar    
  36 N36            0.9151    -7.3515    -7.4340 N.ar    
  37 C37            1.1141    -6.0708    -7.2010 C.ar    
  38 O38            1.0096    -3.1423    -7.3862 O.2     
  39 F39           -2.6466    -7.6557    -7.2096 F       
  40 H40           -3.5144     6.2155     1.3904 H       
  41 H41           -4.5012     5.4738     3.5177 H       
  42 H42           -3.3572     3.7679     4.8738 H       
  43 H43           -1.3979     2.2373     5.1258 H       
  44 H44            0.7029     1.3668     4.2475 H       
  45 H45            1.6032     2.1777     2.1097 H       
  46 H46           -0.8331     4.2923    -1.4965 H       
  47 H47           -2.7213     2.4750    -1.3070 H       
  48 H48            1.1359    -0.6003    -1.6191 H       
  49 H49            1.5000     1.7758    -1.1928 H       
  50 H50           -5.3815     0.4263    -1.8191 H       
  51 H51           -4.4054     1.3943    -0.6885 H       
  52 H52           -4.3039     1.7002    -2.4390 H       
  53 H53            0.0025    -4.4565    -3.2039 H       
  54 H54           -1.6958    -4.2259    -2.7123 H       
  55 H55           -1.3608    -4.9664    -5.1405 H       
  56 H56           -2.3151    -3.4750    -4.9307 H       
  57 H57            0.7357    -1.4135    -5.9348 H       
  58 H58           -0.9626    -1.1829    -5.4431 H       
  59 H59            0.3936    -0.6706    -3.5122 H       
  60 H60            1.3526    -2.1591    -3.7209 H       
  61 H61           -2.1125    -5.1185    -6.7466 H       
  62 H62           -0.4123    -8.9335    -7.6436 H       
  63 H63            2.1193    -5.6759    -7.2073 H       
@<TRIPOS>BOND
   1    1    2 ar
   2    1   10 ar
   3    2    3 ar
   4    2   40 1
   5    3    4 ar
   6    3   41 1
   7    4    5 ar
   8    4   42 1
   9    5    6 ar
  10    5   10 ar
  11    6    7 ar
  12    6   43 1
  13    7    8 ar
  14    7   44 1
  15    8    9 ar
  16    8   45 1
  17    9   10 ar
  18    9   11 1
  19   11   12 2
  20   11   13 2
  21   11   14 am
  22   14   15 1
  23   14   46 1
  24   15   16 ar
  25   15   20 ar
  26   16   17 ar
  27   16   47 1
  28   17   18 ar
  29   17   21 1
  30   18   19 ar
  31   18   23 1
  32   19   20 ar
  33   19   48 1
  34   20   49 1
  35   21   22 1
  36   22   50 1
  37   22   51 1
  38   22   52 1
  39   23   24 2
  40   23   25 am
  41   25   26 1
  42   25   30 1
  43   26   27 1
  44   26   53 1
  45   26   54 1
  46   27   28 1
  47   27   55 1
  48   27   56 1
  49   28   29 1
  50   28   31 am
  51   29   30 1
  52   29   57 1
  53   29   58 1
  54   30   59 1
  55   30   60 1
  56   31   32 1
  57   31   38 2
  58   32   33 ar
  59   32   37 ar
  60   33   34 ar
  61   33   61 1
  62   34   35 ar
  63   34   39 1
  64   35   36 ar
  65   35   62 1
  66   36   37 ar
  67   37   63 1

#	End of record

