#	Name: ASD05430102
#	Creating user name:	WinNT
#	Creation time:	15. 06. 2019 20:59

#	Modifying user name:	WinNT
#	Modification time:	15. 06. 2019 20:59

#	Program:	/corina/corina34_cracker 3.40 0067  02.08.2006

@<TRIPOS>MOLECULE
ASD05430102
  65   70    0    0    0
SMALL
NO_CHARGES


@<TRIPOS>ATOM
   1 F1             7.5634     7.0581    -3.8917 F       
   2 C2             0.1651     1.1926    -1.0004 C.ar    
   3 C3             0.0189    -0.0125    -0.3145 C.ar    
   4 C4             1.0595    -0.5035     0.4633 C.ar    
   5 C5             2.2414     0.1983     0.5614 C.ar    
   6 C6             2.3953     1.4081    -0.1238 C.ar    
   7 C7             1.3477     1.9020    -0.9072 C.ar    
   8 C8             4.8911    -0.0020    -0.0899 C.3     
   9 C9             4.8285     1.4999     0.0679 C.2     
  10 C10            3.6566     2.1594    -0.0200 C.2     
  11 C11            6.3138    -0.4366    -0.4465 C.3     
  12 C12            7.0966     0.6115    -1.2434 C.3     
  13 N13            7.1947     1.8374    -0.4497 N.pl3   
  14 C14            6.0862     2.2193     0.3207 C.2     
  15 C15            8.1707     3.8540    -1.3797 C.ar    
  16 C16            9.1928     4.2906    -2.2018 C.ar    
  17 C17            8.9901     5.3661    -3.0456 C.ar    
  18 C18            7.7626     6.0064    -3.0675 C.ar    
  19 C19            6.7396     5.5682    -2.2438 C.ar    
  20 C20            6.9447     4.4924    -1.4008 C.ar    
  21 N21           -1.1818    -0.7304    -0.4099 N.pl3   
  22 C22           -1.3134    -2.0627    -0.7043 C.2     
  23 C23           -2.6320    -2.3365    -0.6926 C.2     
  24 N24           -3.2917    -1.2061    -0.3997 N.2     
  25 C25           -2.4337    -0.2383    -0.2224 C.2     
  26 C26            7.0939    -0.9689     0.7594 C.3     
  27 S27            7.9913    -2.1104    -0.3280 S.o2    
  28 C28            6.3676    -1.8278    -1.0858 C.3     
  29 O29            9.0470    -1.4776    -1.0382 O.2     
  30 C30           -3.2580    -3.6806    -0.9620 C.3     
  31 C31           -0.6350     2.9078    -2.4399 C.3     
  32 O32           -0.8537     1.6672    -1.7653 O.3     
  33 C33            8.3911     2.6772    -0.4645 C.3     
  34 C34            8.6627     3.1773     0.9588 C.3     
  35 N35            7.4263     3.7140     1.5322 N.pl3   
  36 N36            6.1873     3.1374     1.2286 N.2     
  37 O37            8.1196    -3.4121     0.2274 O.2     
  38 H38            0.9420    -1.4374     0.9929 H       
  39 H39            3.0486    -0.1855     1.1676 H       
  40 H40            1.4622     2.8356    -1.4379 H       
  41 H41            4.5922    -0.4762     0.8450 H       
  42 H42            4.2097    -0.3106    -0.8828 H       
  43 H43            3.6429     3.2393    -0.0142 H       
  44 H44            8.0967     0.2347    -1.4578 H       
  45 H45            6.5766     0.8226    -2.1779 H       
  46 H46           10.1503     3.7913    -2.1842 H       
  47 H47            9.7888     5.7073    -3.6874 H       
  48 H48            5.7817     6.0668    -2.2601 H       
  49 H49            6.1469     4.1505    -0.7582 H       
  50 H50           -0.5132    -2.7591    -0.9073 H       
  51 H51           -2.6787     0.7841     0.0244 H       
  52 H52            7.7380    -0.2186     1.2180 H       
  53 H53            6.4624    -1.4781     1.4874 H       
  54 H54            5.5969    -2.5015    -0.7113 H       
  55 H55            6.4024    -1.7978    -2.1749 H       
  56 H56           -3.3530    -4.2313    -0.0261 H       
  57 H57           -4.2450    -3.5399    -1.4026 H       
  58 H58           -2.6288    -4.2427    -1.6521 H       
  59 H59           -0.4305     3.6886    -1.7074 H       
  60 H60            0.2161     2.8098    -3.1138 H       
  61 H61           -1.5238     3.1713    -3.0132 H       
  62 H62            9.2424     2.0938    -0.8153 H       
  63 H63            9.0188     2.3501     1.5729 H       
  64 H64            9.4200     3.9608     0.9303 H       
  65 H65            7.4664     4.4775     2.1292 H       
@<TRIPOS>BOND
   1    1   18 1
   2    2    3 ar
   3    2    7 ar
   4    2   32 1
   5    3    4 ar
   6    3   21 1
   7    4    5 ar
   8    4   38 1
   9    5    6 ar
  10    5   39 1
  11    6    7 ar
  12    6   10 1
  13    7   40 1
  14    8    9 1
  15    8   11 1
  16    8   41 1
  17    8   42 1
  18    9   10 2
  19    9   14 1
  20   10   43 1
  21   11   12 1
  22   11   26 1
  23   11   28 1
  24   12   13 1
  25   12   44 1
  26   12   45 1
  27   13   14 1
  28   13   33 1
  29   14   36 2
  30   15   16 ar
  31   15   20 ar
  32   15   33 1
  33   16   17 ar
  34   16   46 1
  35   17   18 ar
  36   17   47 1
  37   18   19 ar
  38   19   20 ar
  39   19   48 1
  40   20   49 1
  41   21   22 1
  42   21   25 1
  43   22   23 2
  44   22   50 1
  45   23   24 1
  46   23   30 1
  47   24   25 2
  48   25   51 1
  49   26   27 1
  50   26   52 1
  51   26   53 1
  52   27   28 1
  53   27   29 2
  54   27   37 2
  55   28   54 1
  56   28   55 1
  57   30   56 1
  58   30   57 1
  59   30   58 1
  60   31   32 1
  61   31   59 1
  62   31   60 1
  63   31   61 1
  64   33   34 1
  65   33   62 1
  66   34   35 1
  67   34   63 1
  68   34   64 1
  69   35   36 1
  70   35   65 1

#	End of record

