#	Name: ASD04370052
#	Creating user name:	WinNT
#	Creation time:	15. 06. 2019 20:49

#	Modifying user name:	WinNT
#	Modification time:	15. 06. 2019 20:49

#	Program:	/corina/corina34_cracker 3.40 0067  02.08.2006

@<TRIPOS>MOLECULE
ASD04370052
  61   61    0    0    0
SMALL
NO_CHARGES


@<TRIPOS>ATOM
   1 C1            -0.6617    -0.3500    -1.3103 C.2     
   2 C2             0.0144     0.0234    -0.0163 C.3     
   3 C3             1.4090    -0.6042     0.0301 C.3     
   4 C4             1.2809    -2.1274     0.0953 C.3     
   5 O5            -0.0474    -0.9469    -2.1625 O.2     
   6 O6            -1.9479    -0.0243    -1.5139 O.3     
   7 N7             2.6130    -2.7242     0.2603 N.3     
   8 C8             2.5136    -4.1582     0.5634 C.3     
   9 C9             3.4441    -2.4939    -0.9289 C.3     
  10 N10            2.1218    -0.1229     1.2161 N.am    
  11 C11            2.8503     1.0092     1.1513 C.2     
  12 C12            3.6735     1.4443     2.3361 C.3     
  13 C13            4.3974     2.7502     2.0022 C.3     
  14 C14            5.2333     3.1920     3.2052 C.3     
  15 C15            5.9572     4.4979     2.8713 C.3     
  16 C16            6.7930     4.9397     4.0742 C.3     
  17 C17            7.5169     6.2456     3.7403 C.3     
  18 C18            8.3527     6.6874     4.9433 C.3     
  19 O19            2.8432     1.6777     0.1394 O.2     
  20 O20            9.0289     7.9071     4.6314 O.3     
  21 C21            9.8419     8.4091     5.6939 C.3     
  22 C22           10.5037     9.6908     5.2576 C.ar    
  23 C23           11.3448    10.3655     6.1253 C.ar    
  24 C24           11.9529    11.5447     5.7224 C.ar    
  25 C25           11.7174    12.0445     4.4534 C.ar    
  26 C26           10.8769    11.3683     3.5893 C.ar    
  27 C27           10.2751    10.1895     3.9891 C.ar    
  28 F28           12.7739    12.2053     6.5678 F       
  29 F29           11.5728     9.8760     7.3637 F       
  30 H30            0.1017     1.1080     0.0483 H       
  31 H31           -0.5775    -0.3440     0.8221 H       
  32 H32            1.9634    -0.3241    -0.8656 H       
  33 H33            0.6518    -2.4033     0.9416 H       
  34 H34            0.8303    -2.4939    -0.8271 H       
  35 H35           -2.3382    -0.2850    -2.3594 H       
  36 H36            2.0011    -4.6674    -0.2528 H       
  37 H37            3.5139    -4.5750     0.6807 H       
  38 H38            1.9519    -4.2961     1.4873 H       
  39 H39            3.5588    -1.4220    -1.0899 H       
  40 H40            4.4246    -2.9460    -0.7800 H       
  41 H41            2.9653    -2.9429    -1.7992 H       
  42 H42            2.0695    -0.6190     2.0480 H       
  43 H43            3.0204     1.6003     3.1948 H       
  44 H44            4.4064     0.6728     2.5724 H       
  45 H45            5.0505     2.5943     1.1436 H       
  46 H46            3.6646     3.5217     1.7659 H       
  47 H47            4.5802     3.3479     4.0638 H       
  48 H48            5.9661     2.4205     3.4415 H       
  49 H49            6.6103     4.3420     2.0126 H       
  50 H50            5.2243     5.2694     2.6350 H       
  51 H51            6.1399     5.0956     4.9329 H       
  52 H52            7.5258     4.1682     4.3105 H       
  53 H53            8.1700     6.0897     2.8817 H       
  54 H54            6.7841     7.0171     3.5040 H       
  55 H55            7.6996     6.8433     5.8019 H       
  56 H56            9.0856     5.9159     5.1795 H       
  57 H57            9.2197     8.6007     6.5681 H       
  58 H58           10.6056     7.6733     5.9458 H       
  59 H59           12.1901    12.9630     4.1385 H       
  60 H60           10.6936    11.7588     2.5992 H       
  61 H61            9.6221     9.6602     3.3109 H       
@<TRIPOS>BOND
   1    1    2 1
   2    1    5 2
   3    1    6 1
   4    2    3 1
   5    2   30 1
   6    2   31 1
   7    3    4 1
   8    3   10 1
   9    3   32 1
  10    4    7 1
  11    4   33 1
  12    4   34 1
  13    6   35 1
  14    7    8 1
  15    7    9 1
  16    8   36 1
  17    8   37 1
  18    8   38 1
  19    9   39 1
  20    9   40 1
  21    9   41 1
  22   10   11 am
  23   10   42 1
  24   11   12 1
  25   11   19 2
  26   12   13 1
  27   12   43 1
  28   12   44 1
  29   13   14 1
  30   13   45 1
  31   13   46 1
  32   14   15 1
  33   14   47 1
  34   14   48 1
  35   15   16 1
  36   15   49 1
  37   15   50 1
  38   16   17 1
  39   16   51 1
  40   16   52 1
  41   17   18 1
  42   17   53 1
  43   17   54 1
  44   18   20 1
  45   18   55 1
  46   18   56 1
  47   20   21 1
  48   21   22 1
  49   21   57 1
  50   21   58 1
  51   22   23 ar
  52   22   27 ar
  53   23   24 ar
  54   23   29 1
  55   24   25 ar
  56   24   28 1
  57   25   26 ar
  58   25   59 1
  59   26   27 ar
  60   26   60 1
  61   27   61 1

#	End of record

