#	Name: ASD01910993
#	Creating user name:	WinNT
#	Creation time:	15. 06. 2019 19:56

#	Modifying user name:	WinNT
#	Modification time:	15. 06. 2019 19:56

#	Program:	/corina/corina34_cracker 3.40 0067  02.08.2006

@<TRIPOS>MOLECULE
ASD01910993
  48   51    0    0    0
SMALL
NO_CHARGES


@<TRIPOS>ATOM
   1 N1             0.2566     1.0851    -0.0658 N.3     
   2 C2             0.0721    -0.3373     0.2516 C.3     
   3 C3            -1.4230    -0.6313     0.4135 C.3     
   4 N4            -2.1238    -0.1674    -0.7935 N.am    
   5 C5            -1.8815     1.2084    -1.2534 C.3     
   6 C6            -0.3682     1.4300    -1.3497 C.3     
   7 C7            -2.9654    -0.9817    -1.4607 C.2     
   8 C8            -3.7578    -0.4581    -2.5926 C.ar    
   9 C9            -3.9422    -1.2381    -3.7374 C.ar    
  10 C10           -4.6819    -0.7529    -4.7963 C.ar    
  11 C11           -5.2464     0.5085    -4.7334 C.ar    
  12 C12           -5.0690     1.3010    -3.5913 C.ar    
  13 C13           -4.3268     0.8118    -2.5175 C.ar    
  14 C14           -5.6526     2.6070    -3.5254 C.1     
  15 O15           -3.0726    -2.1469    -1.1313 O.2     
  16 C16           -6.1311     3.6777    -3.4715 C.1     
  17 C17           -6.7147     4.9837    -3.4057 C.ar    
  18 N18           -6.5422     5.7299    -2.3187 N.ar    
  19 C19           -7.0629     6.9358    -2.2202 C.ar    
  20 C20           -7.8126     7.4727    -3.2506 C.ar    
  21 C21           -8.0184     6.7283    -4.4047 C.ar    
  22 C22           -7.4568     5.4674    -4.4866 C.ar    
  23 C23            1.6048     1.4262    -0.0601 C.ar    
  24 F24           -5.9689     0.9772    -5.7743 F       
  25 N25            2.5021     0.5620    -0.5076 N.ar    
  26 C26            3.7910     0.8461    -0.5195 C.ar    
  27 C27            4.2522     2.0638    -0.0623 C.ar    
  28 C28            3.3440     2.9995     0.4159 C.ar    
  29 C29            1.9985     2.6760     0.4109 C.ar    
  30 Cl30           0.8191     3.8074     0.9963 Cl      
  31 H31            0.4770    -0.9458    -0.5570 H       
  32 H32            0.5919    -0.5731     1.1802 H       
  33 H33           -1.5742    -1.7039     0.5353 H       
  34 H34           -1.8077    -0.1031     1.2860 H       
  35 H35           -2.3357     1.3521    -2.2338 H       
  36 H36           -2.3102     1.9134    -0.5412 H       
  37 H37           -0.1679     2.4759    -1.5825 H       
  38 H38            0.0428     0.7968    -2.1360 H       
  39 H39           -3.5042    -2.2236    -3.7936 H       
  40 H40           -4.8204    -1.3605    -5.6784 H       
  41 H41           -4.1868     1.4175    -1.6343 H       
  42 H42           -6.9022     7.5132    -1.3218 H       
  43 H43           -8.2349     8.4624    -3.1584 H       
  44 H44           -8.6008     7.1272    -5.2221 H       
  45 H45           -7.5967     4.8617    -5.3698 H       
  46 H46            4.4941     0.1157    -0.8917 H       
  47 H47            5.3088     2.2868    -0.0758 H       
  48 H48            3.6798     3.9595     0.7792 H       
@<TRIPOS>BOND
   1    1    2 1
   2    1   23 1
   3    1    6 1
   4    2    3 1
   5    2   31 1
   6    2   32 1
   7    3    4 1
   8    3   33 1
   9    3   34 1
  10    4    5 1
  11    4    7 am
  12    5    6 1
  13    5   35 1
  14    5   36 1
  15    6   37 1
  16    6   38 1
  17    7    8 1
  18    7   15 2
  19    8    9 ar
  20    8   13 ar
  21    9   10 ar
  22    9   39 1
  23   10   11 ar
  24   10   40 1
  25   11   12 ar
  26   11   24 1
  27   12   13 ar
  28   12   14 1
  29   13   41 1
  30   14   16 3
  31   16   17 1
  32   17   18 ar
  33   17   22 ar
  34   18   19 ar
  35   19   20 ar
  36   19   42 1
  37   20   21 ar
  38   20   43 1
  39   21   22 ar
  40   21   44 1
  41   22   45 1
  42   23   25 ar
  43   23   29 ar
  44   25   26 ar
  45   26   27 ar
  46   26   46 1
  47   27   28 ar
  48   27   47 1
  49   28   29 ar
  50   28   48 1
  51   29   30 1

#	End of record

