#	Name: ASD09610038
#	Creating user name:	WinNT
#	Creation time:	15. 06. 2019 21:22

#	Modifying user name:	WinNT
#	Modification time:	15. 06. 2019 21:22

#	Program:	/corina/corina34_cracker 3.40 0067  02.08.2006

@<TRIPOS>MOLECULE
ASD09610038
  24   26    0    0    0
SMALL
NO_CHARGES


@<TRIPOS>ATOM
   1 N1            -0.0162     1.3410     0.0094 N.am    
   2 C2             0.0021    -0.0041     0.0020 C.2     
   3 C3             1.4096    -0.4503    -0.0141 C.2     
   4 C4             2.1724     0.6690    -0.0152 C.2     
   5 C5             1.2424     1.8159    -0.0001 C.2     
   6 N6             5.7508    -2.5883     1.1517 N.am    
   7 C7             5.7680    -1.2675     0.8966 C.2     
   8 C8             4.4255    -0.8660     0.4309 C.2     
   9 C9             3.6626    -1.9854     0.4319 C.2     
  10 C10            4.5277    -3.0876     0.8980 C.2     
  11 S11            1.9707    -2.1169    -0.0290 S.3     
  12 S12            3.9287     0.7562    -0.0320 S.3     
  13 O13           -0.9732    -0.7282     0.0080 O.2     
  14 O14            1.5598     2.9884     0.0033 O.2     
  15 O15            6.7248    -0.5306     1.0277 O.2     
  16 O16            4.1921    -4.2476     1.0299 O.2     
  17 C17            6.8942    -3.3672     1.6336 C.3     
  18 C18           -1.2267     2.1661     0.0199 C.3     
  19 H19            6.8989    -3.3693     2.7236 H       
  20 H20            6.8160    -4.3913     1.2687 H       
  21 H21            7.8185    -2.9205     1.2672 H       
  22 H22           -1.5219     2.3651     1.0501 H       
  23 H23           -1.0282     3.1089    -0.4898 H       
  24 H24           -2.0307     1.6381    -0.4929 H       
@<TRIPOS>BOND
   1    1    2 am
   2    1    5 am
   3    1   18 1
   4    2    3 1
   5    2   13 2
   6    3    4 2
   7    3   11 1
   8    4    5 1
   9    4   12 1
  10    5   14 2
  11    6    7 am
  12    6   10 am
  13    6   17 1
  14    7    8 1
  15    7   15 2
  16    8    9 2
  17    8   12 1
  18    9   10 1
  19    9   11 1
  20   10   16 2
  21   17   19 1
  22   17   20 1
  23   17   21 1
  24   18   22 1
  25   18   23 1
  26   18   24 1

#	End of record

