#	Name: ASD01410865
#	Creating user name:	WinNT
#	Creation time:	15. 06. 2019 19:18

#	Modifying user name:	WinNT
#	Modification time:	15. 06. 2019 19:18

#	Program:	/corina/corina34_cracker 3.40 0067  02.08.2006

@<TRIPOS>MOLECULE
ASD01410865
 124  131    0    0    0
SMALL
NO_CHARGES


@<TRIPOS>ATOM
   1 C1             0.5913     1.1278     0.8849 C.3     
   2 C2             0.3410    -0.1271     1.7531 C.3     
   3 N3             0.2987     0.3991     3.1268 N.am    
   4 C4            -0.3785     1.7022     3.0613 C.3     
   5 C5            -0.2112     2.2259     1.6215 C.3     
   6 O6             1.9827     1.4525     0.8553 O.3     
   7 C7            -1.8419     1.5371     3.3808 C.2     
   8 O8            -2.2859     0.4387     3.6399 O.2     
   9 N9            -2.6574     2.6102     3.3786 N.am    
  10 C10            1.4868    -1.1151     1.5764 C.3     
  11 C11            1.6692    -1.3835     4.0205 C.2     
  12 C12            0.8055    -0.1900     4.2271 C.2     
  13 O13            0.5670     0.2352     5.3410 O.2     
  14 C14            2.4772    -1.8481     4.9762 C.2     
  15 C15            2.2075    -1.5118     6.4202 C.3     
  16 C16           -4.0953     2.4380     3.6002 C.3     
  17 C17           -4.8309     1.6738     2.5298 C.2     
  18 N18           -4.1928     1.3162     1.3978 N.am    
  19 O19           -5.9972     1.3806     2.6869 O.2     
  20 S20           -5.0314     0.5888     0.1690 S.o2    
  21 C21           -6.1998     1.8569    -0.3943 C.3     
  22 C22           -4.5721     2.2678     5.0440 C.3     
  23 C23           -4.8440     3.5759     4.2970 C.3     
  24 C24           -7.2175     1.4547    -1.4636 C.3     
  25 C25           -7.6724     1.6770    -0.0198 C.3     
  26 O26           -4.0484     0.3391    -0.8263 O.2     
  27 O27           -5.7221    -0.4803     0.8010 O.2     
  28 C28           -5.7419     1.3492     5.2867 C.2     
  29 C29           -5.6032     0.3031     6.0629 C.2     
  30 C30            2.4180     2.2015    -0.1881 C.ar    
  31 C31            3.7857     2.5378    -0.3196 C.ar    
  32 C32            1.5457     2.6479    -1.1458 C.ar    
  33 C33            2.0208     3.4201    -2.2146 C.ar    
  34 N34            3.3008     3.7330    -2.3260 N.ar    
  35 C35            4.1988     3.3220    -1.4250 C.ar    
  36 C36            1.0695     3.8952    -3.2410 C.2     
  37 S37           -0.6643     3.5825    -3.2507 S.3     
  38 C38            5.5568     3.6617    -1.5542 C.ar    
  39 C39            6.4598     3.2248    -0.6107 C.ar    
  40 C40            6.0410     2.4478     0.4731 C.ar    
  41 C41            4.7312     2.1088     0.6230 C.ar    
  42 Cl42           6.0923     4.6255    -2.8950 Cl      
  43 O43            7.7726     3.5522    -0.7350 O.3     
  44 C44            8.6602     3.0693     0.2754 C.3     
  45 N45            1.3775     4.6171    -4.2805 N.2     
  46 C46            0.3995     4.9483    -5.0884 C.2     
  47 C47           -0.8163     4.5027    -4.7464 C.2     
  48 C48            0.6287     5.7804    -6.3237 C.3     
  49 C49            0.8089     4.8599    -7.5325 C.3     
  50 C50           -0.5765     6.6944    -6.5539 C.3     
  51 C51           10.0846     3.5355    -0.0317 C.3     
  52 N52           10.1511     5.0001     0.0603 N.3     
  53 C53           11.5435     5.4688     0.0067 C.3     
  54 C54           11.5630     6.9991     0.0453 C.3     
  55 O55           10.8849     7.4500     1.2210 O.3     
  56 C56            9.5260     7.0123     1.3053 C.3     
  57 C57            9.4858     5.4821     1.2795 C.3     
  58 C58            3.6592    -2.7088     4.6111 C.3     
  59 N59            1.5814    -1.9950     2.7485 N.am    
  60 O60            1.4722    -3.8930     1.3956 O.3     
  61 C61            1.4824    -5.3434     1.3289 C.3     
  62 C62            0.3123    -5.8996     2.1429 C.3     
  63 C63            1.3464    -5.7879    -0.1287 C.3     
  64 C64            2.7990    -5.8711     1.9024 C.3     
  65 C65            1.5840    -3.3363     2.6166 C.2     
  66 O66            1.6872    -4.0433     3.5995 O.2     
  67 H67            0.2098     0.9800    -0.1254 H       
  68 H68           -0.6129    -0.5857     1.4923 H       
  69 H69            0.0821     2.3959     3.7647 H       
  70 H70            0.3436     3.1642     1.6221 H       
  71 H71           -1.1856     2.3617     1.1524 H       
  72 H72           -2.2923     3.4965     3.2303 H       
  73 H73            1.3100    -1.7178     0.6855 H       
  74 H74            2.4217    -0.5670     1.4597 H       
  75 H75            1.5572    -2.2710     6.8547 H       
  76 H76            3.1491    -1.4828     6.9685 H       
  77 H77            1.7211    -0.5383     6.4818 H       
  78 H78           -3.2423     1.4849     1.3029 H       
  79 H79           -5.8095     2.8740    -0.4282 H       
  80 H80           -3.8161     2.2839     5.8290 H       
  81 H81           -4.2667     4.4526     4.5908 H       
  82 H82           -5.8688     3.7717     3.9814 H       
  83 H83           -7.4969     2.2074    -2.2009 H       
  84 H84           -7.1850     0.4282    -1.8287 H       
  85 H85           -7.9390     0.7967     0.5650 H       
  86 H86           -8.2510     2.5759     0.1928 H       
  87 H87           -6.6946     1.5534     4.8208 H       
  88 H88           -6.4415    -0.3552     6.2369 H       
  89 H89           -4.6505     0.0989     6.5289 H       
  90 H90            0.4955     2.4051    -1.0775 H       
  91 H91            6.7649     2.1150     1.2022 H       
  92 H92            4.4211     1.5079     1.4651 H       
  93 H93            8.3519     3.4582     1.2459 H       
  94 H94            8.6306     1.9799     0.2946 H       
  95 H95           -1.7318     4.6779    -5.2920 H       
  96 H96            1.5248     6.3869    -6.1921 H       
  97 H97           -0.0872     4.2534    -7.6641 H       
  98 H98            0.9747     5.4617    -8.4260 H       
  99 H99            1.6675     4.2087    -7.3685 H       
 100 H100          -0.7049     7.3502    -5.6928 H       
 101 H101          -0.4107     7.2962    -7.4474 H       
 102 H102          -1.4726     6.0879    -6.6855 H       
 103 H103          10.7744     3.0946     0.6879 H       
 104 H104          10.3604     3.2219    -1.0386 H       
 105 H105          12.0929     5.0761     0.8623 H       
 106 H106          12.0090     5.1220    -0.9159 H       
 107 H107          12.5950     7.3496     0.0634 H       
 108 H108          11.0600     7.3920    -0.8383 H       
 109 H109           9.0847     7.3724     2.2347 H       
 110 H110           8.9637     7.4056     0.4584 H       
 111 H111           8.4492     5.1451     1.2860 H       
 112 H112          10.0023     5.0896     2.1554 H       
 113 H113           4.2819    -2.1828     3.8874 H       
 114 H114           4.2435    -2.9222     5.5061 H       
 115 H115           3.3070    -3.6439     4.1756 H       
 116 H116          -0.6257    -5.5236     1.7344 H       
 117 H117           0.3199    -6.9884     2.0929 H       
 118 H118           0.4092    -5.5829     3.1814 H       
 119 H119           2.1800    -5.3917    -0.7087 H       
 120 H120           1.3541    -6.8768    -0.1788 H       
 121 H121           0.4084    -5.4120    -0.5373 H       
 122 H122           2.8959    -5.5544     2.9408 H       
 123 H123           2.8067    -6.9599     1.8523 H       
 124 H124           3.6326    -5.4749     1.3224 H       
@<TRIPOS>BOND
   1    1    2 1
   2    1    6 1
   3    1    5 1
   4    1   67 1
   5    2    3 1
   6    2   10 1
   7    2   68 1
   8    3    4 1
   9    3   12 am
  10    4    5 1
  11    4    7 1
  12    4   69 1
  13    5   70 1
  14    5   71 1
  15    6   30 1
  16    7    8 2
  17    7    9 am
  18    9   16 1
  19    9   72 1
  20   10   59 1
  21   10   73 1
  22   10   74 1
  23   11   12 1
  24   11   14 2
  25   11   59 1
  26   12   13 2
  27   14   15 1
  28   14   58 1
  29   15   75 1
  30   15   76 1
  31   15   77 1
  32   16   17 1
  33   16   22 1
  34   16   23 1
  35   17   18 am
  36   17   19 2
  37   18   20 am
  38   18   78 1
  39   20   21 1
  40   20   26 2
  41   20   27 2
  42   21   24 1
  43   21   25 1
  44   21   79 1
  45   22   23 1
  46   22   28 1
  47   22   80 1
  48   23   81 1
  49   23   82 1
  50   24   25 1
  51   24   83 1
  52   24   84 1
  53   25   85 1
  54   25   86 1
  55   28   29 2
  56   28   87 1
  57   29   88 1
  58   29   89 1
  59   30   31 ar
  60   30   32 ar
  61   31   35 ar
  62   31   41 ar
  63   32   33 ar
  64   32   90 1
  65   33   34 ar
  66   33   36 1
  67   34   35 ar
  68   35   38 ar
  69   36   45 2
  70   36   37 1
  71   37   47 1
  72   38   39 ar
  73   38   42 1
  74   39   40 ar
  75   39   43 1
  76   40   41 ar
  77   40   91 1
  78   41   92 1
  79   43   44 1
  80   44   51 1
  81   44   93 1
  82   44   94 1
  83   45   46 1
  84   46   47 2
  85   46   48 1
  86   47   95 1
  87   48   49 1
  88   48   50 1
  89   48   96 1
  90   49   97 1
  91   49   98 1
  92   49   99 1
  93   50  100 1
  94   50  101 1
  95   50  102 1
  96   51   52 1
  97   51  103 1
  98   51  104 1
  99   52   53 1
 100   52   57 1
 101   53   54 1
 102   53  105 1
 103   53  106 1
 104   54   55 1
 105   54  107 1
 106   54  108 1
 107   55   56 1
 108   56   57 1
 109   56  109 1
 110   56  110 1
 111   57  111 1
 112   57  112 1
 113   58  113 1
 114   58  114 1
 115   58  115 1
 116   59   65 am
 117   60   61 1
 118   60   65 1
 119   61   62 1
 120   61   63 1
 121   61   64 1
 122   62  116 1
 123   62  117 1
 124   62  118 1
 125   63  119 1
 126   63  120 1
 127   63  121 1
 128   64  122 1
 129   64  123 1
 130   64  124 1
 131   65   66 2

#	End of record

