#	Name: ASD06340017
#	Creating user name:	WinNT
#	Creation time:	15. 06. 2019 21:05

#	Modifying user name:	WinNT
#	Modification time:	15. 06. 2019 21:05

#	Program:	/corina/corina34_cracker 3.40 0067  02.08.2006

@<TRIPOS>MOLECULE
ASD06340017
  33   35    0    0    0
SMALL
NO_CHARGES


@<TRIPOS>ATOM
   1 C1            -0.0162     1.3444     0.0094 C.2     
   2 N2             0.0021    -0.0041     0.0020 N.am    
   3 N3             1.3491    -0.3972    -0.0130 N.am    
   4 C4             2.0900     0.7297    -0.0140 C.2     
   5 N5             1.2553     1.7854    -0.0003 N.am    
   6 C6             1.8550    -1.7721    -0.0247 C.3     
   7 O7            -1.0112     2.0423     0.0182 O.2     
   8 C8             1.6482     3.1314     0.0024 C.ar    
   9 C9             2.0416    -2.2508     1.3920 C.ar    
  10 C10            1.0038    -2.8839     2.0500 C.ar    
  11 C11            1.1749    -3.3230     3.3495 C.ar    
  12 C12            2.3841    -3.1295     3.9908 C.ar    
  13 C13            3.4222    -2.4972     3.3325 C.ar    
  14 C14            3.2525    -2.0620     2.0315 C.ar    
  15 O15            3.3042     0.7828    -0.0253 O.2     
  16 C16            0.6898     4.1356     0.0167 C.ar    
  17 C17            1.0798     5.4606     0.0193 C.ar    
  18 C18            2.4234     5.7873     0.0078 C.ar    
  19 C19            3.3803     4.7892    -0.0064 C.ar    
  20 C20            2.9964     3.4624    -0.0034 C.ar    
  21 H21           -0.7700    -0.5913     0.0065 H       
  22 H22            1.1405    -2.4177    -0.5353 H       
  23 H23            2.8109    -1.8030    -0.5476 H       
  24 H24            0.0591    -3.0351     1.5489 H       
  25 H25            0.3638    -3.8169     3.8638 H       
  26 H26            2.5176    -3.4719     5.0064 H       
  27 H27            4.3668    -2.3457     3.8337 H       
  28 H28            4.0636    -1.5680     1.5172 H       
  29 H29           -0.3597     3.8810     0.0254 H       
  30 H30            0.3347     6.2423     0.0301 H       
  31 H31            2.7260     6.8240     0.0095 H       
  32 H32            4.4290     5.0473    -0.0154 H       
  33 H33            3.7442     2.6832    -0.0145 H       
@<TRIPOS>BOND
   1    1    2 am
   2    1    5 am
   3    1    7 2
   4    2    3 1
   5    2   21 1
   6    3    4 am
   7    3    6 1
   8    4    5 am
   9    4   15 2
  10    5    8 1
  11    6    9 1
  12    6   22 1
  13    6   23 1
  14    8   16 ar
  15    8   20 ar
  16    9   10 ar
  17    9   14 ar
  18   10   11 ar
  19   10   24 1
  20   11   12 ar
  21   11   25 1
  22   12   13 ar
  23   12   26 1
  24   13   14 ar
  25   13   27 1
  26   14   28 1
  27   16   17 ar
  28   16   29 1
  29   17   18 ar
  30   17   30 1
  31   18   19 ar
  32   18   31 1
  33   19   20 ar
  34   19   32 1
  35   20   33 1

#	End of record

