#	Name: ASD00845292
#	Creating user name:	WinNT
#	Creation time:	15. 06. 2019 18:52

#	Modifying user name:	WinNT
#	Modification time:	15. 06. 2019 18:52

#	Program:	/corina/corina34_cracker 3.40 0067  02.08.2006

@<TRIPOS>MOLECULE
ASD00845292
  90   95    0    0    0
SMALL
NO_CHARGES


@<TRIPOS>ATOM
   1 F1            -0.0762    -3.1158     4.7249 F       
   2 C2            -0.0167     1.3829     0.0096 C.ar    
   3 C3             0.0021    -0.0041     0.0020 C.ar    
   4 C4             1.2143    -0.6791    -0.0132 C.ar    
   5 C5             2.3989     0.0312    -0.0207 C.ar    
   6 C6             2.3774     1.4139    -0.0126 C.ar    
   7 C7             1.1710     2.0888     0.0021 C.ar    
   8 C8             1.2384    -2.1858    -0.0210 C.3     
   9 C9             0.4954    -2.7217    -1.2260 C.2     
  10 O10            2.6067    -2.6714    -0.0100 O.3     
  11 C11            3.3978    -2.2930    -1.0317 C.2     
  12 N12            4.6788    -2.7088    -1.0818 N.am    
  13 O13            2.9568    -1.5767    -1.9085 O.2     
  14 C14            5.5600    -2.3073    -2.1888 C.3     
  15 C15            6.8538    -1.7362    -1.5986 C.3     
  16 N16            7.4341    -2.7105    -0.6648 N.3     
  17 C17            6.5393    -2.9551     0.4743 C.3     
  18 C18            5.2344    -3.5712    -0.0278 C.3     
  19 C19            8.7610    -2.2762    -0.2081 C.3     
  20 C20            9.2799    -3.2486     0.8548 C.3     
  21 C21           10.6872    -2.8258     1.2824 C.3     
  22 N22           11.5769    -2.8292     0.1141 N.3     
  23 C23           11.1250    -1.8682    -0.9002 C.3     
  24 C24            9.7308    -2.2624    -1.3930 C.3     
  25 C25           12.9663    -2.5627     0.5096 C.3     
  26 O26            0.7745    -2.5251    -2.3899 O.2     
  27 N27           -0.5308    -3.4561    -0.7651 N.am    
  28 C28            0.4695    -2.7339     1.1599 C.ar    
  29 C29           -0.5756    -3.4845     0.6309 C.ar    
  30 C30            0.6376    -2.6093     2.5214 C.ar    
  31 C31           -0.2397    -3.2360     3.3892 C.ar    
  32 C32           -1.2963    -3.9947     2.8754 C.ar    
  33 C33           -1.4606    -4.1171     1.4959 C.ar    
  34 C34           -0.9792    -5.8526    -2.0419 C.ar    
  35 C35            0.2000    -6.0106    -2.7551 C.ar    
  36 C36           -1.6498    -6.9619    -1.5637 C.ar    
  37 C37           -1.1464    -8.2284    -1.7951 C.ar    
  38 C38            0.0290    -8.3886    -2.5058 C.ar    
  39 C39            0.7030    -7.2829    -2.9864 C.ar    
  40 H40            0.4203    -9.3791    -2.6853 H       
  41 O41            0.8613    -4.9211    -3.2269 O.3     
  42 C42            2.0690    -5.1592    -3.9527 C.3     
  43 C43            2.6666    -3.8238    -4.4005 C.3     
  44 O44           -1.1648    -0.7006     0.0099 O.3     
  45 C45           -2.3744     0.0601     0.0260 C.3     
  46 C46           -3.5740    -0.8895     0.0328 C.3     
  47 F47           -3.5417    -1.6899    -1.1142 F       
  48 F48           -3.5190    -1.7022     1.1702 F       
  49 S49           -1.6174    -4.2383    -1.7397 S.o2    
  50 O50           -2.7973    -4.4114    -0.9671 O.2     
  51 O51           -1.5983    -3.5592    -2.9878 O.2     
  52 C52           -2.2089    -4.6466     3.7658 C.1     
  53 N53           -2.9329    -5.1638     4.4721 N.1     
  54 H54           -0.9590     1.9106     0.0170 H       
  55 H55            3.3426    -0.4937    -0.0325 H       
  56 H56            3.3047     1.9675    -0.0178 H       
  57 H57            1.1569     3.1687     0.0084 H       
  58 H58            5.7912    -3.1754    -2.8062 H       
  59 H59            5.0658    -1.5462    -2.7926 H       
  60 H60            7.5626    -1.5356    -2.4020 H       
  61 H61            6.6335    -0.8101    -1.0677 H       
  62 H62            7.0200    -3.6385     1.1742 H       
  63 H63            6.3234    -2.0120     0.9763 H       
  64 H64            4.5250    -3.6483     0.7962 H       
  65 H65            5.4313    -4.5612    -0.4390 H       
  66 H66            8.6902    -1.2752     0.2175 H       
  67 H67            8.6162    -3.2309     1.7192 H       
  68 H68            9.3127    -4.2564     0.4409 H       
  69 H69           10.6514    -1.8233     1.7087 H       
  70 H70           11.0653    -3.5245     2.0287 H       
  71 H71           11.0872    -0.8702    -0.4636 H       
  72 H72           11.8210    -1.8713    -1.7391 H       
  73 H73            9.7706    -3.2547    -1.8422 H       
  74 H74            9.3892    -1.5401    -2.1344 H       
  75 H75           13.3000    -3.3327     1.2053 H       
  76 H76           13.6037    -2.5709    -0.3745 H       
  77 H77           13.0261    -1.5870     0.9917 H       
  78 H78            1.4553    -2.0220     2.9122 H       
  79 H79           -2.2766    -4.7032     1.0995 H       
  80 H80           -2.5680    -6.8394    -1.0083 H       
  81 H81           -1.6717    -9.0942    -1.4198 H       
  82 H82            1.6205    -7.4085    -3.5421 H       
  83 H83            2.7812    -5.6795    -3.3123 H       
  84 H84            1.8522    -5.7719    -4.8278 H       
  85 H85            1.9544    -3.3035    -5.0409 H       
  86 H86            2.8834    -3.2111    -3.5254 H       
  87 H87            3.5878    -4.0054    -4.9541 H       
  88 H88           -2.3995     0.6837     0.9196 H       
  89 H89           -2.4172     0.6932    -0.8603 H       
  90 H90           -4.4966    -0.3093     0.0451 H       
@<TRIPOS>BOND
   1    1   31 1
   2    2    3 ar
   3    2    7 ar
   4    2   54 1
   5    3    4 ar
   6    3   44 1
   7    4    5 ar
   8    4    8 1
   9    5    6 ar
  10    5   55 1
  11    6    7 ar
  12    6   56 1
  13    7   57 1
  14    8    9 1
  15    8   10 1
  16    8   28 1
  17    9   26 2
  18    9   27 am
  19   10   11 1
  20   11   12 am
  21   11   13 2
  22   12   14 1
  23   12   18 1
  24   14   15 1
  25   14   58 1
  26   14   59 1
  27   15   16 1
  28   15   60 1
  29   15   61 1
  30   16   17 1
  31   16   19 1
  32   17   18 1
  33   17   62 1
  34   17   63 1
  35   18   64 1
  36   18   65 1
  37   19   20 1
  38   19   24 1
  39   19   66 1
  40   20   21 1
  41   20   67 1
  42   20   68 1
  43   21   22 1
  44   21   69 1
  45   21   70 1
  46   22   23 1
  47   22   25 1
  48   23   24 1
  49   23   71 1
  50   23   72 1
  51   24   73 1
  52   24   74 1
  53   25   75 1
  54   25   76 1
  55   25   77 1
  56   27   49 am
  57   27   29 1
  58   28   29 ar
  59   28   30 ar
  60   29   33 ar
  61   30   31 ar
  62   30   78 1
  63   31   32 ar
  64   32   33 ar
  65   32   52 1
  66   33   79 1
  67   34   35 ar
  68   34   36 ar
  69   34   49 1
  70   35   41 1
  71   35   39 ar
  72   36   37 ar
  73   36   80 1
  74   37   38 ar
  75   37   81 1
  76   38   39 ar
  77   38   40 1
  78   39   82 1
  79   41   42 1
  80   42   43 1
  81   42   83 1
  82   42   84 1
  83   43   85 1
  84   43   86 1
  85   43   87 1
  86   44   45 1
  87   45   46 1
  88   45   88 1
  89   45   89 1
  90   46   47 1
  91   46   48 1
  92   46   90 1
  93   49   50 2
  94   49   51 2
  95   52   53 3

#	End of record

