#	Name: ASD03240781
#	Creating user name:	WinNT
#	Creation time:	15. 06. 2019 20:35

#	Modifying user name:	WinNT
#	Modification time:	15. 06. 2019 20:35

#	Program:	/corina/corina34_cracker 3.40 0067  02.08.2006

@<TRIPOS>MOLECULE
ASD03240781
  74   80    0    0    0
SMALL
NO_CHARGES


@<TRIPOS>ATOM
   1 N1             0.1440     1.8823     0.0347 N.3     
   2 C2            -0.0708     0.4345     0.1533 C.3     
   3 C3             0.6013    -0.0795     1.4285 C.3     
   4 C4             2.0998     0.2299     1.3701 C.3     
   5 C5             2.2950     1.7388     1.1980 C.3     
   6 C6             1.5738     2.2001    -0.0705 C.3     
   7 C7             2.7572    -0.2202     2.6493 C.2     
   8 O8             2.0935    -0.7378     3.5226 O.2     
   9 N9             4.0825    -0.0476     2.8228 N.am    
  10 C10           -0.6031     2.4339    -1.1035 C.3     
  11 C11           -0.5601     3.9394    -1.0505 C.ar    
  12 C12            0.4614     4.6221    -1.6865 C.ar    
  13 C13            0.5061     6.0004    -1.6420 C.ar    
  14 C14           -0.4815     6.7055    -0.9540 C.ar    
  15 C15           -1.5088     6.0113    -0.3148 C.ar    
  16 C16           -1.5454     4.6332    -0.3710 C.ar    
  17 C17            2.1075    12.1212    -0.6924 C.2     
  18 N18            1.0006    12.8850    -0.6981 N.2     
  19 C19           -0.1994    12.3672    -0.7505 C.2     
  20 C20           -0.3440    10.9140    -0.8055 C.ar    
  21 C21            0.8215    10.1179    -0.7987 C.ar    
  22 N22            2.0462    10.7548    -0.7411 N.pl3   
  23 C23           -1.6000    10.3013    -0.8632 C.ar    
  24 C24           -1.6453     8.9117    -0.9122 C.ar    
  25 C25           -0.4392     8.1848    -0.9020 C.ar    
  26 N26            0.7326     8.8004    -0.8470 N.ar    
  27 N27            3.3579    10.2655    -0.7196 N.2     
  28 C28            4.1866    11.2801    -0.6605 C.2     
  29 C29            3.4528    12.4594    -0.6362 C.2     
  30 C30           -2.9471     8.2049    -0.9740 C.ar    
  31 C31           -3.9583     8.5204    -0.0678 C.ar    
  32 C32           -5.1681     7.8595    -0.1304 C.ar    
  33 C33           -5.3783     6.8853    -1.0897 C.ar    
  34 C34           -4.3784     6.5677    -1.9913 C.ar    
  35 C35           -3.1667     7.2263    -1.9422 C.ar    
  36 C36            5.6899    11.1825    -0.6199 C.3     
  37 C37            4.6764    -0.3752     4.0467 C.ar    
  38 C38            4.2158    -1.4649     4.7739 C.ar    
  39 C39            4.8045    -1.7857     5.9824 C.ar    
  40 C40            5.8521    -1.0218     6.4674 C.ar    
  41 C41            6.3121     0.0633     5.7450 C.ar    
  42 C42            5.7312     0.3853     4.5337 C.ar    
  43 Cl43           4.2296    -3.1473     6.8931 Cl      
  44 H44           -1.1402     0.2285     0.1980 H       
  45 H45            0.3599    -0.0686    -0.7124 H       
  46 H46            0.1615     0.4131     2.2956 H       
  47 H47            0.4550    -1.1567     1.5081 H       
  48 H48            2.5473    -0.2940     0.5255 H       
  49 H49            1.8818     2.2601     2.0615 H       
  50 H50            3.3588     1.9608     1.1129 H       
  51 H51            1.9968     1.6887    -0.9352 H       
  52 H52            1.6989     3.2765    -0.1884 H       
  53 H53            4.6247     0.3037     2.0993 H       
  54 H54           -0.1527     2.0901    -2.0347 H       
  55 H55           -1.6390     2.0981    -1.0553 H       
  56 H56            1.2257     4.0751    -2.2186 H       
  57 H57            1.3042     6.5323    -2.1386 H       
  58 H58           -2.2760     6.5517     0.2198 H       
  59 H59           -2.3425     4.0948     0.1200 H       
  60 H60           -1.0712    13.0046    -0.7534 H       
  61 H61           -2.5063    10.8886    -0.8688 H       
  62 H62            3.8564    13.4598    -0.5847 H       
  63 H63           -3.7950     9.2803     0.6821 H       
  64 H64           -5.9523     8.1031     0.5712 H       
  65 H65           -6.3266     6.3704    -1.1348 H       
  66 H66           -4.5480     5.8060    -2.7380 H       
  67 H67           -2.3883     6.9807    -2.6495 H       
  68 H68            6.0824    11.1946    -1.6368 H       
  69 H69            6.0941    12.0286    -0.0643 H       
  70 H70            5.9806    10.2535    -0.1294 H       
  71 H71            3.3982    -2.0607     4.3957 H       
  72 H72            6.3107    -1.2739     7.4122 H       
  73 H73            7.1293     0.6577     6.1262 H       
  74 H74            6.0943     1.2306     3.9680 H       
@<TRIPOS>BOND
   1    1    2 1
   2    1    6 1
   3    1   10 1
   4    2    3 1
   5    2   44 1
   6    2   45 1
   7    3    4 1
   8    3   46 1
   9    3   47 1
  10    4    5 1
  11    4    7 1
  12    4   48 1
  13    5    6 1
  14    5   49 1
  15    5   50 1
  16    6   51 1
  17    6   52 1
  18    7    8 2
  19    7    9 am
  20    9   37 1
  21    9   53 1
  22   10   11 1
  23   10   54 1
  24   10   55 1
  25   11   12 ar
  26   11   16 ar
  27   12   13 ar
  28   12   56 1
  29   13   14 ar
  30   13   57 1
  31   14   15 ar
  32   14   25 1
  33   15   16 ar
  34   15   58 1
  35   16   59 1
  36   17   18 1
  37   17   22 1
  38   17   29 2
  39   18   19 2
  40   19   20 1
  41   19   60 1
  42   20   21 ar
  43   20   23 ar
  44   21   22 1
  45   21   26 ar
  46   22   27 1
  47   23   24 ar
  48   23   61 1
  49   24   25 ar
  50   24   30 1
  51   25   26 ar
  52   27   28 2
  53   28   29 1
  54   28   36 1
  55   29   62 1
  56   30   31 ar
  57   30   35 ar
  58   31   32 ar
  59   31   63 1
  60   32   33 ar
  61   32   64 1
  62   33   34 ar
  63   33   65 1
  64   34   35 ar
  65   34   66 1
  66   35   67 1
  67   36   68 1
  68   36   69 1
  69   36   70 1
  70   37   38 ar
  71   37   42 ar
  72   38   39 ar
  73   38   71 1
  74   39   40 ar
  75   39   43 1
  76   40   41 ar
  77   40   72 1
  78   41   42 ar
  79   41   73 1
  80   42   74 1

#	End of record

