#	Name: ASD03430086
#	Creating user name:	WinNT
#	Creation time:	15. 06. 2019 20:40

#	Modifying user name:	WinNT
#	Modification time:	15. 06. 2019 20:40

#	Program:	/corina/corina34_cracker 3.40 0067  02.08.2006

@<TRIPOS>MOLECULE
ASD03430086
  65   71    0    0    0
SMALL
NO_CHARGES


@<TRIPOS>ATOM
   1 C1             0.0283     1.3698     0.0210 C.ar    
   2 C2             0.0338    -0.0169     0.0136 C.ar    
   3 C3             1.2273    -0.7063     0.0132 C.ar    
   4 C4             2.4401    -0.0232     0.0310 C.ar    
   5 C5             2.4310     1.3674     0.0345 C.ar    
   6 C6             1.2329     2.0624     0.0305 C.ar    
   7 O7             3.4940    -0.8883     0.0566 O.3     
   8 C8             1.5621    -2.1734    -0.0160 C.3     
   9 C9             3.0531    -2.1881    -0.3802 C.3     
  10 C10            0.4088    -3.8781     1.0242 C.ar    
  11 C11            1.3005    -2.8457     1.2988 C.ar    
  12 C12            0.7365    -2.9267    -1.0190 C.2     
  13 N13            0.0990    -3.8995    -0.3378 N.am    
  14 O14            0.6581    -2.7031    -2.2085 O.2     
  15 C15            1.7495    -2.6294     2.5891 C.ar    
  16 C16            1.3094    -3.4486     3.6231 C.ar    
  17 C17            0.4251    -4.4754     3.3552 C.ar    
  18 C18           -0.0243    -4.6922     2.0685 C.ar    
  19 N19            2.6442    -1.5898     2.8531 N.pl3   
  20 O20           -1.1599     2.0346     0.0133 O.3     
  21 C21           -1.1270     3.4148     0.3927 C.3     
  22 C22            0.0417     4.0867    -0.3409 C.3     
  23 O23            1.2515     3.4237     0.0398 O.3     
  24 C24           -0.8130    -4.8664    -0.9539 C.3     
  25 C25           -2.2330    -4.3857    -0.8008 C.ar    
  26 C26           -2.9690    -4.0612    -1.9245 C.ar    
  27 C27           -4.2748    -3.6199    -1.7727 C.ar    
  28 C28           -4.7931    -3.5212    -0.4907 C.ar    
  29 C29           -3.9968    -3.8636     0.5859 C.ar    
  30 N30           -2.7607    -4.2847     0.4036 N.ar    
  31 C31            3.1192    -1.3615     4.2200 C.3     
  32 C32            4.0670    -0.1900     4.2334 C.ar    
  33 C33            3.5824     1.0889     4.4351 C.ar    
  34 C34            5.4216    -0.3947     4.0495 C.ar    
  35 C35            6.2910     0.6799     4.0618 C.ar    
  36 C36            5.8057     1.9594     4.2574 C.ar    
  37 C37            4.4518     2.1635     4.4473 C.ar    
  38 C38           -2.3601    -4.1850    -3.2974 C.3     
  39 F39           -3.3330    -3.9132    -4.2653 F       
  40 F40           -1.3077    -3.2720    -3.4248 F       
  41 F41           -1.8743    -5.4846    -3.4767 F       
  42 H42           -0.9005    -0.5586     0.0084 H       
  43 H43            3.3651     1.9095     0.0407 H       
  44 H44            3.1876    -2.3011    -1.4560 H       
  45 H45            3.5761    -2.9764     0.1612 H       
  46 H46            1.6579    -3.2828     4.6318 H       
  47 H47            0.0837    -5.1126     4.1575 H       
  48 H48           -0.7162    -5.4974     1.8700 H       
  49 H49            2.9510    -1.0190     2.1313 H       
  50 H50           -2.0635     3.8960     0.1106 H       
  51 H51           -0.9808     3.4967     1.4697 H       
  52 H52           -0.1011     3.9987    -1.4179 H       
  53 H53            0.0949     5.1389    -0.0613 H       
  54 H54           -0.5753    -4.9662    -2.0130 H       
  55 H55           -0.7020    -5.8338    -0.4639 H       
  56 H56           -4.8736    -3.3589    -2.6328 H       
  57 H57           -5.8062    -3.1808    -0.3352 H       
  58 H58           -4.3930    -3.7891     1.5879 H       
  59 H59            2.2697    -1.1490     4.8691 H       
  60 H60            3.6365    -2.2515     4.5783 H       
  61 H61            2.5245     1.2484     4.5828 H       
  62 H62            5.8008    -1.3944     3.8967 H       
  63 H63            7.3495     0.5199     3.9189 H       
  64 H64            6.4850     2.7990     4.2674 H       
  65 H65            4.0726     3.1631     4.6002 H       
@<TRIPOS>BOND
   1    1    2 ar
   2    1    6 ar
   3    1   20 1
   4    2    3 ar
   5    2   42 1
   6    3    4 ar
   7    3    8 1
   8    4    5 ar
   9    4    7 1
  10    5    6 ar
  11    5   43 1
  12    6   23 1
  13    7    9 1
  14    8    9 1
  15    8   11 1
  16    8   12 1
  17    9   44 1
  18    9   45 1
  19   10   11 ar
  20   10   13 1
  21   10   18 ar
  22   11   15 ar
  23   12   13 am
  24   12   14 2
  25   13   24 1
  26   15   16 ar
  27   15   19 1
  28   16   17 ar
  29   16   46 1
  30   17   18 ar
  31   17   47 1
  32   18   48 1
  33   19   31 1
  34   19   49 1
  35   20   21 1
  36   21   22 1
  37   21   50 1
  38   21   51 1
  39   22   23 1
  40   22   52 1
  41   22   53 1
  42   24   25 1
  43   24   54 1
  44   24   55 1
  45   25   26 ar
  46   25   30 ar
  47   26   27 ar
  48   26   38 1
  49   27   28 ar
  50   27   56 1
  51   28   29 ar
  52   28   57 1
  53   29   30 ar
  54   29   58 1
  55   31   32 1
  56   31   59 1
  57   31   60 1
  58   32   33 ar
  59   32   34 ar
  60   33   37 ar
  61   33   61 1
  62   34   35 ar
  63   34   62 1
  64   35   36 ar
  65   35   63 1
  66   36   37 ar
  67   36   64 1
  68   37   65 1
  69   38   39 1
  70   38   40 1
  71   38   41 1

#	End of record

