#	Name: ASD01948054
#	Creating user name:	WinNT
#	Creation time:	15. 06. 2019 20:13

#	Modifying user name:	WinNT
#	Modification time:	15. 06. 2019 20:13

#	Program:	/corina/corina34_cracker 3.40 0067  02.08.2006

@<TRIPOS>MOLECULE
ASD01948054
  51   54    0    0    0
SMALL
NO_CHARGES


@<TRIPOS>ATOM
   1 C1            -1.7613     1.3535     0.7971 C.3     
   2 C2            -2.0563    -0.1326     0.5837 C.3     
   3 C3            -0.6090     0.3623     0.6221 C.3     
   4 S4            -2.1109     2.4828    -0.5787 S.o2    
   5 O5            -1.2877     2.1775    -1.6960 O.2     
   6 O6            -3.5119     2.6664    -0.7294 O.2     
   7 N7            -1.5601     3.9543    -0.0556 N.am    
   8 C8             0.7173     3.2016    -0.2592 C.2     
   9 C9            -0.1778     4.1677     0.1199 C.2     
  10 C10            0.2805     5.3708     0.6828 C.2     
  11 C11            1.6464     5.5615     0.8509 C.2     
  12 C12            2.5234     4.5557     0.4504 C.2     
  13 N13            2.0565     3.4183    -0.0958 N.am    
  14 O14            0.4715     1.9793    -0.8008 O.3     
  15 C15            2.7741     2.2364    -0.6144 C.3     
  16 C16            1.6780     1.5167    -1.4330 C.3     
  17 O17            3.7274     4.7082     0.5962 O.2     
  18 C18            2.1716     6.8375     1.4568 C.3     
  19 N19           -0.6185     6.3548     1.0650 N.pl3   
  20 C20           -1.4865     6.9143     0.1210 C.ar    
  21 C21           -2.3845     7.9065     0.5014 C.ar    
  22 C22           -3.2404     8.4567    -0.4345 C.ar    
  23 C23           -3.2038     8.0211    -1.7474 C.ar    
  24 C24           -2.3122     7.0346    -2.1273 C.ar    
  25 C25           -1.4496     6.4848    -1.1984 C.ar    
  26 I26           -4.5026     8.8574    -3.1626 I       
  27 F27           -2.4204     8.3313     1.7834 F       
  28 C28           -1.9943     1.9260     2.1967 C.3     
  29 C29           -1.5133     3.3778     2.2404 C.3     
  30 O30           -1.6103     3.8717     3.5778 O.3     
  31 H31           -2.4162    -0.7024     1.4404 H       
  32 H32           -2.4604    -0.4316    -0.3834 H       
  33 H33           -0.0610     0.3888    -0.3197 H       
  34 H34           -0.0169     0.1181     1.5041 H       
  35 H35           -2.1887     4.6694     0.1301 H       
  36 H36            3.6026     2.5366    -1.2559 H       
  37 H37            3.1242     1.6060     0.2030 H       
  38 H38            1.7734     0.4347    -1.3419 H       
  39 H39            1.7104     1.8234    -2.4785 H       
  40 H40            2.1584     6.7558     2.5437 H       
  41 H41            3.1934     7.0071     1.1176 H       
  42 H42            1.5427     7.6723     1.1475 H       
  43 H43           -0.6457     6.6553     1.9869 H       
  44 H44           -3.9383     9.2267    -0.1406 H       
  45 H45           -2.2870     6.6966    -3.1528 H       
  46 H46           -0.7503     5.7181    -1.4977 H       
  47 H47           -3.0578     1.8884     2.4323 H       
  48 H48           -1.4393     1.3372     2.9271 H       
  49 H49           -0.4759     3.4270     1.9093 H       
  50 H50           -2.1339     3.9861     1.5825 H       
  51 H51           -1.3212     4.7887     3.6804 H       
@<TRIPOS>BOND
   1    1    2 1
   2    1    3 1
   3    1    4 1
   4    1   28 1
   5    2    3 1
   6    2   31 1
   7    2   32 1
   8    3   33 1
   9    3   34 1
  10    4    5 2
  11    4    6 2
  12    4    7 am
  13    7    9 1
  14    7   35 1
  15    8    9 2
  16    8   13 1
  17    8   14 1
  18    9   10 1
  19   10   11 2
  20   10   19 1
  21   11   12 1
  22   11   18 1
  23   12   13 am
  24   12   17 2
  25   13   15 1
  26   14   16 1
  27   15   16 1
  28   15   36 1
  29   15   37 1
  30   16   38 1
  31   16   39 1
  32   18   40 1
  33   18   41 1
  34   18   42 1
  35   19   20 1
  36   19   43 1
  37   20   21 ar
  38   20   25 ar
  39   21   22 ar
  40   21   27 1
  41   22   23 ar
  42   22   44 1
  43   23   24 ar
  44   23   26 1
  45   24   25 ar
  46   24   45 1
  47   25   46 1
  48   28   29 1
  49   28   47 1
  50   28   48 1
  51   29   30 1
  52   29   49 1
  53   29   50 1
  54   30   51 1

#	End of record

