#	Name: ASD01814335
#	Creating user name:	WinNT
#	Creation time:	15. 06. 2019 19:32

#	Modifying user name:	WinNT
#	Modification time:	15. 06. 2019 19:32

#	Program:	/corina/corina34_cracker 3.40 0067  02.08.2006

@<TRIPOS>MOLECULE
ASD01814335
  62   67    0    0    0
SMALL
NO_CHARGES


@<TRIPOS>ATOM
   1 N1            -0.9369     1.9358    -1.5548 N.2     
   2 C2            -1.2050     0.7956    -2.1463 C.2     
   3 C3            -0.3428     0.2897    -3.1312 C.2     
   4 C4             0.7696     0.9893    -3.4662 C.2     
   5 N5             1.0248     2.1733    -2.8349 N.pl3   
   6 C6             0.1590     2.6354    -1.8777 C.2     
   7 N7             2.0619     3.1043    -2.9533 N.2     
   8 C8             1.8458     4.0931    -2.1094 C.2     
   9 C9             0.6715     3.8432    -1.4194 C.2     
  10 C10            2.4211     5.4020    -1.6269 C.3     
  11 N11            1.5217     5.9328    -0.5979 N.am    
  12 C12            0.4224     4.9731    -0.4536 C.3     
  13 C13            1.6761     7.0840     0.0857 C.2     
  14 O14            0.8062     7.4599     0.8478 O.2     
  15 C15            2.8994     7.8875    -0.0904 C.ar    
  16 C16            2.8140     9.2808    -0.2261 C.ar    
  17 C17            4.1504     7.2653    -0.1171 C.ar    
  18 C18            5.2901     8.0206    -0.2814 C.ar    
  19 C19            5.2022     9.3989    -0.4208 C.ar    
  20 C20            3.9695    10.0272    -0.3906 C.ar    
  21 O21            1.6049     9.8951    -0.1967 O.3     
  22 C22            1.6030    11.3241    -0.1962 C.3     
  23 Cl23          -0.6969    -1.2190    -3.9136 Cl      
  24 F24            6.3261    10.1312    -0.5810 F       
  25 C25            0.3793    11.4419    -2.3688 C.3     
  26 C26            1.6736    11.8342    -1.6384 C.3     
  27 C27            0.3206    11.8316     0.4695 C.3     
  28 C28           -0.8820    11.4393    -0.4039 C.3     
  29 N29           -0.7392    12.1570    -1.6986 N.3     
  30 C30            0.1051     9.9487    -2.0762 C.3     
  31 C31           -0.7282     9.9471    -0.7777 C.3     
  32 C32           -1.9729    12.0645    -2.4906 C.3     
  33 C33           -3.1496    12.5881    -1.6647 C.3     
  34 C34           -4.4346    12.4918    -2.4896 C.3     
  35 O35           -5.5336    12.9808    -1.7182 O.3     
  36 H36           -2.0927     0.2440    -1.8738 H       
  37 H37            1.4446     0.6151    -4.2217 H       
  38 H38            3.4112     5.2361    -1.2023 H       
  39 H39            2.4876     6.1047    -2.4575 H       
  40 H40           -0.5251     5.4579    -0.6887 H       
  41 H41            0.3991     4.5891     0.5662 H       
  42 H42            4.2233     6.1933    -0.0087 H       
  43 H43            6.2564     7.5387    -0.3016 H       
  44 H44            3.9082    11.1003    -0.4959 H       
  45 H45            2.4678    11.6876     0.3589 H       
  46 H46            0.4278    11.6599    -3.4357 H       
  47 H47            1.7776    12.9192    -1.6372 H       
  48 H48            2.5285    11.3843    -2.1433 H       
  49 H49            0.2180    11.3798     1.4561 H       
  50 H50            0.3637    12.9165     0.5654 H       
  51 H51           -1.8320    11.6553     0.0848 H       
  52 H52           -0.4623     9.5003    -2.8917 H       
  53 H53            1.0426     9.4133    -1.9259 H       
  54 H54           -0.2005     9.4108     0.0110 H       
  55 H55           -1.7054     9.4978    -0.9548 H       
  56 H56           -1.8694    12.6631    -3.3956 H       
  57 H57           -2.1536    11.0243    -2.7616 H       
  58 H58           -3.2531    11.9895    -0.7596 H       
  59 H59           -2.9690    13.6283    -1.3936 H       
  60 H60           -4.3311    13.0904    -3.3946 H       
  61 H61           -4.6152    11.4516    -2.7606 H       
  62 H62           -6.3828    12.9496    -2.1797 H       
@<TRIPOS>BOND
   1    1    2 2
   2    1    6 1
   3    2    3 1
   4    2   36 1
   5    3    4 2
   6    3   23 1
   7    4    5 1
   8    4   37 1
   9    5    7 1
  10    5    6 1
  11    6    9 2
  12    7    8 2
  13    8   10 1
  14    8    9 1
  15    9   12 1
  16   10   11 1
  17   10   38 1
  18   10   39 1
  19   11   12 1
  20   11   13 am
  21   12   40 1
  22   12   41 1
  23   13   14 2
  24   13   15 1
  25   15   17 ar
  26   15   16 ar
  27   16   20 ar
  28   16   21 1
  29   17   18 ar
  30   17   42 1
  31   18   19 ar
  32   18   43 1
  33   19   20 ar
  34   19   24 1
  35   20   44 1
  36   21   22 1
  37   22   27 1
  38   22   26 1
  39   22   45 1
  40   25   26 1
  41   25   29 1
  42   25   30 1
  43   25   46 1
  44   26   47 1
  45   26   48 1
  46   27   28 1
  47   27   49 1
  48   27   50 1
  49   28   29 1
  50   28   31 1
  51   28   51 1
  52   29   32 1
  53   30   31 1
  54   30   52 1
  55   30   53 1
  56   31   54 1
  57   31   55 1
  58   32   33 1
  59   32   56 1
  60   32   57 1
  61   33   34 1
  62   33   58 1
  63   33   59 1
  64   34   35 1
  65   34   60 1
  66   34   61 1
  67   35   62 1

#	End of record

