#	Name: ASD05490051
#	Creating user name:	WinNT
#	Creation time:	15. 06. 2019 21:01

#	Modifying user name:	WinNT
#	Modification time:	15. 06. 2019 21:01

#	Program:	/corina/corina34_cracker 3.40 0067  02.08.2006

@<TRIPOS>MOLECULE
ASD05490051
  44   46    0    0    0
SMALL
NO_CHARGES


@<TRIPOS>ATOM
   1 O1            -0.0173     1.4248     0.0099 O.3     
   2 N2             2.2883     1.3279    -0.0127 N.ar    
   3 C3             3.4877     1.9005    -0.0217 C.ar    
   4 C4             1.1818     2.0565     0.0018 C.ar    
   5 N5             1.2068     3.3778     0.0082 N.ar    
   6 C6             2.3634     4.0326     0.0007 C.ar    
   7 C7             3.5624     3.3026    -0.0142 C.ar    
   8 N8             4.6390     1.1307    -0.0363 N.pl3   
   9 C9             4.0900     5.4128    -0.0078 C.2     
  10 N10            4.5807     4.2014    -0.0188 N.2     
  11 C11            0.0021    -0.0041     0.0020 C.3     
  12 C12           -1.4333    -0.5336     0.0129 C.3     
  13 O13           -2.0889    -0.1578    -1.2000 O.3     
  14 C14           -3.4428    -0.6056    -1.2917 C.3     
  15 N15            2.7242     5.3595     0.0044 N.pl3   
  16 C16            1.7987     7.1306     1.4161 C.3     
  17 C17            1.8120     6.5058     0.0185 C.3     
  18 O18            2.2530     7.4774    -0.9321 O.3     
  19 C19            1.4148     8.6316    -1.0183 C.3     
  20 C20            1.3856     9.3418     0.3376 C.3     
  21 C21            0.8899     8.3636     1.4070 C.3     
  22 O22            4.8245     6.5499    -0.0086 O.3     
  23 C23            6.2459     6.4041    -0.0230 C.3     
  24 H24            4.5753     0.1628    -0.0401 H       
  25 H25            5.5091     1.5596    -0.0428 H       
  26 H26            0.5123    -0.3556    -0.8948 H       
  27 H27            0.5293    -0.3651     0.8851 H       
  28 H28           -1.4190    -1.6203     0.0965 H       
  29 H29           -1.9701    -0.1109     0.8621 H       
  30 H30           -4.0213    -0.1844    -0.4695 H       
  31 H31           -3.8696    -0.2802    -2.2404 H       
  32 H32           -3.4702    -1.6938    -1.2352 H       
  33 H33            1.4207     6.4047     2.1360 H       
  34 H34            2.8108     7.4261     1.6925 H       
  35 H35            0.8067     6.1736    -0.2407 H       
  36 H36            1.8073     9.3101    -1.7757 H       
  37 H37            0.4043     8.3274    -1.2912 H       
  38 H38            2.3893     9.6820     0.5923 H       
  39 H39            0.7121    10.1973     0.2862 H       
  40 H40           -0.1323     8.0614     1.1791 H       
  41 H41            0.9197     8.8457     2.3841 H       
  42 H42            6.7123     7.3893    -0.0220 H       
  43 H43            6.5634     5.8509     0.8610 H       
  44 H44            6.5464     5.8608    -0.9189 H       
@<TRIPOS>BOND
   1    1   11 1
   2    1    4 1
   3    2    3 ar
   4    2    4 ar
   5    3    8 1
   6    3    7 ar
   7    4    5 ar
   8    5    6 ar
   9    6    7 ar
  10    6   15 1
  11    7   10 1
  12    8   24 1
  13    8   25 1
  14    9   10 2
  15    9   15 1
  16    9   22 1
  17   11   12 1
  18   11   26 1
  19   11   27 1
  20   12   13 1
  21   12   28 1
  22   12   29 1
  23   13   14 1
  24   14   30 1
  25   14   31 1
  26   14   32 1
  27   15   17 1
  28   16   17 1
  29   16   21 1
  30   16   33 1
  31   16   34 1
  32   17   18 1
  33   17   35 1
  34   18   19 1
  35   19   20 1
  36   19   36 1
  37   19   37 1
  38   20   21 1
  39   20   38 1
  40   20   39 1
  41   21   40 1
  42   21   41 1
  43   22   23 1
  44   23   42 1
  45   23   43 1
  46   23   44 1

#	End of record

