#	Name: ASD01410265
#	Creating user name:	WinNT
#	Creation time:	15. 06. 2019 19:17

#	Modifying user name:	WinNT
#	Modification time:	15. 06. 2019 19:17

#	Program:	/corina/corina34_cracker 3.40 0067  02.08.2006

@<TRIPOS>MOLECULE
ASD01410265
  33   34    0    0    0
SMALL
NO_CHARGES


@<TRIPOS>ATOM
   1 C1            -0.0311     1.2742     0.4235 C.ar    
   2 C2            -0.0231    -0.0865     0.1878 C.ar    
   3 C3            -1.2111    -0.7680    -0.0244 C.ar    
   4 C4            -2.4131    -0.0937    -0.0022 C.ar    
   5 C5            -2.4354     1.2830     0.2357 C.ar    
   6 C6            -1.2326     1.9676     0.4554 C.ar    
   7 O7            -1.2419     3.3043     0.6873 O.3     
   8 I8             1.7725     2.2914     0.7419 I       
   9 C9            -3.7182     2.0107     0.2603 C.2     
  10 N10           -4.8732     1.3478     0.0530 N.am    
  11 C11           -7.2025     1.3576     0.6897 C.ar    
  12 C12           -6.0955     2.0177     0.1729 C.ar    
  13 C13           -6.2036     3.3441    -0.2243 C.ar    
  14 C14           -7.4121     4.0035    -0.1043 C.ar    
  15 C15           -8.5144     3.3423     0.4121 C.ar    
  16 C16           -8.4083     2.0210     0.8082 C.ar    
  17 I17           -1.1798    -2.8322    -0.3811 I       
  18 Cl18         -10.0312     4.1731     0.5629 Cl      
  19 O19           -3.7336     3.2089     0.4676 O.2     
  20 Cl20          -7.5488     5.6615    -0.6003 Cl      
  21 C21           -1.3509     3.7258     2.0484 C.3     
  22 C22           -1.3450     5.2316     2.1099 C.2     
  23 O23           -1.2565     5.8774     1.0926 O.2     
  24 O24           -1.4380     5.8552     3.2949 O.3     
  25 H25            0.9142    -0.6225     0.1684 H       
  26 H26           -3.3364    -0.6287    -0.1687 H       
  27 H27           -4.8569     0.4061    -0.1793 H       
  28 H28           -7.1219     0.3248     0.9951 H       
  29 H29           -5.3440     3.8598    -0.6262 H       
  30 H30           -9.2693     1.5076     1.2101 H       
  31 H31           -2.2816     3.3485     2.4722 H       
  32 H32           -0.5077     3.3356     2.6183 H       
  33 H33           -1.4301     6.8221     3.2839 H       
@<TRIPOS>BOND
   1    1    2 ar
   2    1    8 1
   3    1    6 ar
   4    2    3 ar
   5    2   25 1
   6    3    4 ar
   7    3   17 1
   8    4    5 ar
   9    4   26 1
  10    5    6 ar
  11    5    9 1
  12    6    7 1
  13    7   21 1
  14    9   10 am
  15    9   19 2
  16   10   12 1
  17   10   27 1
  18   11   12 ar
  19   11   16 ar
  20   11   28 1
  21   12   13 ar
  22   13   14 ar
  23   13   29 1
  24   14   15 ar
  25   14   20 1
  26   15   16 ar
  27   15   18 1
  28   16   30 1
  29   21   22 1
  30   21   31 1
  31   21   32 1
  32   22   23 2
  33   22   24 1
  34   24   33 1

#	End of record

