#	Name: ASD02198072
#	Creating user name:	WinNT
#	Creation time:	15. 06. 2019 20:18

#	Modifying user name:	WinNT
#	Modification time:	15. 06. 2019 20:18

#	Program:	/corina/corina34_cracker 3.40 0067  02.08.2006

@<TRIPOS>MOLECULE
ASD02198072
  38   40    0    0    0
SMALL
NO_CHARGES


@<TRIPOS>ATOM
   1 C1            -0.0166     1.3754     0.0096 C.2     
   2 C2             0.0021    -0.0041     0.0020 C.2     
   3 C3            -1.1878    -0.8007     0.0087 C.1     
   4 S4             1.5674     2.0057    -0.0021 S.3     
   5 C5             2.2773     0.3993    -0.0175 C.2     
   6 C6             1.2821    -0.5521    -0.0131 C.2     
   7 C7             3.6563     0.1257    -0.0331 C.2     
   8 C8             4.6330     1.2405    -0.0370 C.ar    
   9 O9             4.0487    -1.0286    -0.0434 O.2     
  10 N10            1.5289    -1.9150    -0.0228 N.pl3   
  11 N11           -1.1592     2.1392     0.0194 N.pl3   
  12 N12           -2.1318    -1.4327     0.0139 N.1     
  13 C13            5.9981     0.9628    -0.0524 C.ar    
  14 C14            6.8990     2.0155    -0.0558 C.ar    
  15 C15            6.4035     3.3103    -0.0437 C.ar    
  16 C16            5.0334     3.5130    -0.0286 C.ar    
  17 N17            4.1997     2.4952    -0.0311 N.ar    
  18 C18           -1.0631     3.6010     0.0268 C.3     
  19 C19           -2.3388     4.2163    -0.5745 C.3     
  20 C20           -2.9731     5.0845     0.5317 C.3     
  21 C21           -1.7895     5.4290     1.4696 C.3     
  22 C22           -0.9666     4.1169     1.4775 C.3     
  23 H23            2.4419    -2.2425    -0.0333 H       
  24 H24            0.7888    -2.5420    -0.0191 H       
  25 H25           -2.0293     1.7104     0.0213 H       
  26 H26            6.3492    -0.0585    -0.0612 H       
  27 H27            7.9632     1.8316    -0.0673 H       
  28 H28            7.0793     4.1527    -0.0456 H       
  29 H29            4.6440     4.5204    -0.0191 H       
  30 H30           -0.1903     3.9204    -0.5426 H       
  31 H31           -2.0851     4.8350    -1.4353 H       
  32 H32           -3.0295     3.4272    -0.8719 H       
  33 H33           -3.3995     5.9929     0.1062 H       
  34 H34           -3.7346     4.5202     1.0700 H       
  35 H35           -1.2012     6.2516     1.0630 H       
  36 H36           -2.1471     5.6667     2.4715 H       
  37 H37           -1.4041     3.3963     2.1685 H       
  38 H38            0.0713     4.3191     1.7422 H       
@<TRIPOS>BOND
   1    1    2 2
   2    1    4 1
   3    1   11 1
   4    2    3 1
   5    2    6 1
   6    3   12 3
   7    4    5 1
   8    5    6 2
   9    5    7 1
  10    6   10 1
  11    7    8 1
  12    7    9 2
  13    8   13 ar
  14    8   17 ar
  15   10   23 1
  16   10   24 1
  17   11   18 1
  18   11   25 1
  19   13   14 ar
  20   13   26 1
  21   14   15 ar
  22   14   27 1
  23   15   16 ar
  24   15   28 1
  25   16   17 ar
  26   16   29 1
  27   18   19 1
  28   18   22 1
  29   18   30 1
  30   19   20 1
  31   19   31 1
  32   19   32 1
  33   20   21 1
  34   20   33 1
  35   20   34 1
  36   21   22 1
  37   21   35 1
  38   21   36 1
  39   22   37 1
  40   22   38 1

#	End of record

