#	Name: ASD00310050
#	Creating user name:	WinNT
#	Creation time:	15. 06. 2019 18:33

#	Modifying user name:	WinNT
#	Modification time:	15. 06. 2019 18:33

#	Program:	/corina/corina34_cracker 3.40 0067  02.08.2006

@<TRIPOS>MOLECULE
ASD00310050
  39   42    0    0    0
SMALL
NO_CHARGES


@<TRIPOS>ATOM
   1 N1            -0.0162     1.3428     0.0094 N.pl3   
   2 C2             0.0021    -0.0041     0.0020 C.2     
   3 C3             1.3063    -0.4496    -0.0128 C.2     
   4 C4             2.1540     0.7600    -0.0144 C.ar    
   5 C5             3.5274     0.9732    -0.0264 C.ar    
   6 C6             4.0204     2.2720    -0.0241 C.ar    
   7 C7             3.1351     3.3563    -0.0099 C.ar    
   8 C8             1.7740     3.1463     0.0025 C.ar    
   9 C9             1.2676     1.8490    -0.0001 C.ar    
  10 C10            1.7455    -1.7968    -0.0236 C.2     
  11 O11            0.9341    -2.6998    -0.0204 O.2     
  12 C12            5.4847     2.5099    -0.0363 C.ar    
  13 C13            6.0424     3.3916    -0.9603 C.ar    
  14 C14            7.4053     3.6090    -0.9671 C.ar    
  15 C15            8.2174     2.9536    -0.0592 C.ar    
  16 C16            7.6693     2.0770     0.8598 C.ar    
  17 C17            6.3070     1.8567     0.8798 C.ar    
  18 C18            9.7048     3.1951    -0.0716 C.3     
  19 C19           10.3648     3.0451     1.3092 C.3     
  20 C20           11.5318     2.3496     0.5886 C.3     
  21 C21           10.5243     1.9697    -0.5093 C.3     
  22 O22           10.0658     4.3995    -0.7508 O.3     
  23 F23            3.6192     4.6176    -0.0077 F       
  24 H24           -0.8217     1.8831     0.0163 H       
  25 H25           -0.8721    -0.6383     0.0073 H       
  26 H26            4.2073     0.1341    -0.0370 H       
  27 H27            1.0984     3.9888     0.0142 H       
  28 H28            2.8021    -2.0202    -0.0345 H       
  29 H29            5.4093     3.9035    -1.6698 H       
  30 H30            7.8385     4.2918    -1.6829 H       
  31 H31            8.3081     1.5674     1.5660 H       
  32 H32            5.8795     1.1760     1.6011 H       
  33 H33           10.6389     3.9952     1.7677 H       
  34 H34            9.8169     2.3897     1.9862 H       
  35 H35           12.3077     3.0364     0.2505 H       
  36 H36           11.9309     1.4922     1.1306 H       
  37 H37           10.0199     1.0203    -0.3295 H       
  38 H38           10.9270     2.0516    -1.5188 H       
  39 H39            9.6722     4.4886    -1.6296 H       
@<TRIPOS>BOND
   1    1    2 1
   2    1    9 1
   3    1   24 1
   4    2    3 2
   5    2   25 1
   6    3    4 1
   7    3   10 1
   8    4    5 ar
   9    4    9 ar
  10    5    6 ar
  11    5   26 1
  12    6    7 ar
  13    6   12 1
  14    7    8 ar
  15    7   23 1
  16    8    9 ar
  17    8   27 1
  18   10   11 2
  19   10   28 1
  20   12   13 ar
  21   12   17 ar
  22   13   14 ar
  23   13   29 1
  24   14   15 ar
  25   14   30 1
  26   15   16 ar
  27   15   18 1
  28   16   17 ar
  29   16   31 1
  30   17   32 1
  31   18   19 1
  32   18   21 1
  33   18   22 1
  34   19   20 1
  35   19   33 1
  36   19   34 1
  37   20   21 1
  38   20   35 1
  39   20   36 1
  40   21   37 1
  41   21   38 1
  42   22   39 1

#	End of record

