#	Name: ASD08150252
#	Creating user name:	WinNT
#	Creation time:	15. 06. 2019 21:15

#	Modifying user name:	WinNT
#	Modification time:	15. 06. 2019 21:15

#	Program:	/corina/corina34_cracker 3.40 0067  02.08.2006

@<TRIPOS>MOLECULE
ASD08150252
  34   37    0    0    0
SMALL
NO_CHARGES


@<TRIPOS>ATOM
   1 N1            -0.0155     1.2949     0.0092 N.2     
   2 C2             0.0021    -0.0041     0.0020 C.2     
   3 O3             1.1360    -0.7246     0.0051 O.3     
   4 C4             2.2382    -0.1267    -0.5189 C.2     
   5 C5             2.3457     1.3225    -0.2734 C.ar    
   6 C6             1.1400     2.0106     0.0020 C.ar    
   7 C7             3.5535     2.0073    -0.3024 C.ar    
   8 C8             3.5657     3.3650    -0.0553 C.ar    
   9 C9             2.3864     4.0431     0.2206 C.ar    
  10 C10            1.1778     3.3801     0.2508 C.ar    
  11 O11            3.0773    -0.7445    -1.1461 O.2     
  12 C12           -1.3137    -0.7386    -0.0099 C.3     
  13 S13           -2.6723     0.4574    -0.0112 S.3     
  14 N14           -5.9178     1.0876    -0.0270 N.2     
  15 C15           -7.2150     0.9818    -0.0352 C.2     
  16 N16           -7.5748    -0.3331    -0.0441 N.pl3   
  17 C17           -6.4208    -1.0752    -0.0410 C.ar    
  18 N18           -6.1405    -2.3745    -0.0464 N.ar    
  19 C19           -4.8918    -2.7919    -0.0415 C.ar    
  20 N20           -3.8665    -1.9603    -0.0318 N.ar    
  21 C21           -4.0485    -0.6429    -0.0255 C.ar    
  22 C22           -5.3646    -0.1487    -0.0301 C.ar    
  23 C23            4.8370     1.2757    -0.5998 C.3     
  24 H24            4.5010     3.9046    -0.0765 H       
  25 H25            2.4159     5.1052     0.4140 H       
  26 H26            0.2671     3.9191     0.4662 H       
  27 H27           -1.3753    -1.3594    -0.9037 H       
  28 H28           -1.3858    -1.3693     0.8762 H       
  29 H29           -7.9046     1.8130    -0.0351 H       
  30 H30           -8.4805    -0.6803    -0.0512 H       
  31 H31           -4.6991    -3.8545    -0.0457 H       
  32 H32            5.0185     1.2827    -1.6746 H       
  33 H33            5.6635     1.7694    -0.0886 H       
  34 H34            4.7574     0.2460    -0.2514 H       
@<TRIPOS>BOND
   1    1    2 2
   2    1    6 1
   3    2    3 1
   4    2   12 1
   5    3    4 1
   6    4    5 1
   7    4   11 2
   8    5    6 ar
   9    5    7 ar
  10    6   10 ar
  11    7    8 ar
  12    7   23 1
  13    8    9 ar
  14    8   24 1
  15    9   10 ar
  16    9   25 1
  17   10   26 1
  18   12   13 1
  19   12   27 1
  20   12   28 1
  21   13   21 1
  22   14   15 2
  23   14   22 1
  24   15   16 1
  25   15   29 1
  26   16   17 1
  27   16   30 1
  28   17   18 ar
  29   17   22 ar
  30   18   19 ar
  31   19   20 ar
  32   19   31 1
  33   20   21 ar
  34   21   22 ar
  35   23   32 1
  36   23   33 1
  37   23   34 1

#	End of record

