#	Name: ASD01913986
#	Creating user name:	WinNT
#	Creation time:	15. 06. 2019 20:02

#	Modifying user name:	WinNT
#	Modification time:	15. 06. 2019 20:02

#	Program:	/corina/corina34_cracker 3.40 0067  02.08.2006

@<TRIPOS>MOLECULE
ASD01913986
  42   45    0    0    0
SMALL
NO_CHARGES


@<TRIPOS>ATOM
   1 N1            -0.0541     1.2931     0.0095 N.2     
   2 N2            -0.0588     0.0061     0.0606 N.pl3   
   3 C3             1.1981    -0.4496     0.2965 C.2     
   4 C4             2.0052     0.6513     0.3959 C.2     
   5 C5             1.1675     1.7599     0.2042 C.2     
   6 C6             3.4835     0.6111     0.6621 C.3     
   7 C7             1.6691    -1.8418     0.4265 C.ar    
   8 C8             0.9086    -2.8944    -0.0780 C.ar    
   9 C9             1.3675    -4.1911     0.0351 C.ar    
  10 C10            2.5822    -4.4499     0.6469 C.ar    
  11 C11            3.3425    -3.4164     1.1574 C.ar    
  12 C12            2.8923    -2.1060     1.0597 C.ar    
  13 S13            3.8482    -0.7969     1.7487 S.3     
  14 C14            1.5732     3.1802     0.2175 C.2     
  15 O15            2.7363     3.4784     0.4084 O.2     
  16 N16            0.6541     4.1455     0.0179 N.am    
  17 C17           -1.2431    -0.8392    -0.1094 C.3     
  18 C18            1.0185     5.4913     0.1269 C.ar    
  19 C19            2.2759     5.9067    -0.2894 C.ar    
  20 C20            2.6333     7.2412    -0.1797 C.ar    
  21 C21            1.7340     8.1588     0.3456 C.ar    
  22 C22            0.4828     7.7435     0.7595 C.ar    
  23 C23            0.1206     6.4150     0.6465 C.ar    
  24 O24            3.8637     7.6511    -0.5859 O.3     
  25 C25            4.1642     9.0408    -0.4436 C.3     
  26 H26            4.0207     0.4945    -0.2791 H       
  27 H27            3.7921     1.5367     1.1481 H       
  28 H28           -0.0390    -2.6959    -0.5566 H       
  29 H29            0.7767    -5.0068    -0.3548 H       
  30 H30            2.9373    -5.4668     0.7257 H       
  31 H31            4.2889    -3.6272     1.6331 H       
  32 H32           -0.2602     3.9068    -0.2014 H       
  33 H33           -1.3622    -1.0901    -1.1634 H       
  34 H34           -1.1227    -1.7542     0.4706 H       
  35 H35           -2.1257    -0.3023     0.2382 H       
  36 H36            2.9744     5.1913    -0.6976 H       
  37 H37            2.0127     9.1987     0.4314 H       
  38 H38           -0.2149     8.4595     1.1682 H       
  39 H39           -0.8596     6.0938     0.9666 H       
  40 H40            3.4532     9.6277    -1.0251 H       
  41 H41            4.0939     9.3220     0.6072 H       
  42 H42            5.1747     9.2328    -0.8043 H       
@<TRIPOS>BOND
   1    1    2 1
   2    1    5 2
   3    2    3 1
   4    2   17 1
   5    3    4 2
   6    3    7 1
   7    4    5 1
   8    4    6 1
   9    5   14 1
  10    6   13 1
  11    6   26 1
  12    6   27 1
  13    7    8 ar
  14    7   12 ar
  15    8    9 ar
  16    8   28 1
  17    9   10 ar
  18    9   29 1
  19   10   11 ar
  20   10   30 1
  21   11   12 ar
  22   11   31 1
  23   12   13 1
  24   14   15 2
  25   14   16 am
  26   16   18 1
  27   16   32 1
  28   17   33 1
  29   17   34 1
  30   17   35 1
  31   18   19 ar
  32   18   23 ar
  33   19   20 ar
  34   19   36 1
  35   20   21 ar
  36   20   24 1
  37   21   22 ar
  38   21   37 1
  39   22   23 ar
  40   22   38 1
  41   23   39 1
  42   24   25 1
  43   25   40 1
  44   25   41 1
  45   25   42 1

#	End of record

