#	Name: ASD00310510
#	Creating user name:	WinNT
#	Creation time:	15. 06. 2019 18:34

#	Modifying user name:	WinNT
#	Modification time:	15. 06. 2019 18:34

#	Program:	/corina/corina34_cracker 3.40 0067  02.08.2006

@<TRIPOS>MOLECULE
ASD00310510
  38   40    0    0    0
SMALL
NO_CHARGES


@<TRIPOS>ATOM
   1 N1            -0.0164     1.2856     0.0114 N.pl3   
   2 N2             0.0000     0.0023    -0.0052 N.2     
   3 C3             1.2268    -0.4744    -0.0249 C.2     
   4 C4             2.1228     0.6907    -0.0199 C.ar    
   5 C5             3.4999     0.8805    -0.0328 C.ar    
   6 C6             4.0083     2.1723    -0.0219 C.ar    
   7 C7             3.1378     3.2697     0.0022 C.ar    
   8 C8             1.7849     3.0871     0.0149 C.ar    
   9 C9             1.2542     1.8001     0.0039 C.ar    
  10 C10            1.6227    -1.8922    -0.0470 C.2     
  11 O11            2.7998    -2.1943    -0.0636 O.2     
  12 O12            0.6796    -2.8553    -0.0489 O.3     
  13 C13            5.4756     2.3910    -0.0354 C.ar    
  14 C14            6.0418     3.2726    -0.9546 C.ar    
  15 C15            7.4061     3.4738    -0.9648 C.ar    
  16 C16            8.2154     2.7993    -0.0607 C.ar    
  17 C17            7.6544     1.9202     0.8557 C.ar    
  18 C18            6.2900     1.7196     0.8748 C.ar    
  19 O19            9.5593     2.9995    -0.0731 O.3     
  20 C20           10.0828     3.8234    -1.1167 C.3     
  21 C21            9.9873     5.2932    -0.7026 C.3     
  22 C22           11.5472     3.4586    -1.3684 C.3     
  23 Cl23           3.7868     4.8798     0.0168 Cl      
  24 H24           -0.8242     1.8225     0.0236 H       
  25 H25            4.1674     0.0316    -0.0507 H       
  26 H26            1.1255     3.9423     0.0336 H       
  27 H27            0.9880    -3.7717    -0.0638 H       
  28 H28            5.4127     3.7974    -1.6585 H       
  29 H29            7.8454     4.1565    -1.6770 H       
  30 H30            8.2865     1.3966     1.5576 H       
  31 H31            5.8536     1.0395     1.5914 H       
  32 H32            9.5070     3.6646    -2.0285 H       
  33 H33           10.5632     5.4520     0.2091 H       
  34 H34           10.3867     5.9217    -1.4987 H       
  35 H35            8.9441     5.5531    -0.5233 H       
  36 H36           11.6153     2.4115    -1.6634 H       
  37 H37           11.9466     4.0870    -2.1645 H       
  38 H38           12.1231     3.6174    -0.4567 H       
@<TRIPOS>BOND
   1    1    2 1
   2    1    9 1
   3    1   24 1
   4    2    3 2
   5    3    4 1
   6    3   10 1
   7    4    5 ar
   8    4    9 ar
   9    5    6 ar
  10    5   25 1
  11    6    7 ar
  12    6   13 1
  13    7    8 ar
  14    7   23 1
  15    8    9 ar
  16    8   26 1
  17   10   11 2
  18   10   12 1
  19   12   27 1
  20   13   14 ar
  21   13   18 ar
  22   14   15 ar
  23   14   28 1
  24   15   16 ar
  25   15   29 1
  26   16   17 ar
  27   16   19 1
  28   17   18 ar
  29   17   30 1
  30   18   31 1
  31   19   20 1
  32   20   21 1
  33   20   22 1
  34   20   32 1
  35   21   33 1
  36   21   34 1
  37   21   35 1
  38   22   36 1
  39   22   37 1
  40   22   38 1

#	End of record

