#	Name: ASD00450081
#	Creating user name:	WinNT
#	Creation time:	15. 06. 2019 18:36

#	Modifying user name:	WinNT
#	Modification time:	15. 06. 2019 18:36

#	Program:	/corina/corina34_cracker 3.40 0067  02.08.2006

@<TRIPOS>MOLECULE
ASD00450081
  50   52    0    0    0
SMALL
NO_CHARGES


@<TRIPOS>ATOM
   1 C1            -1.8548     2.6492     1.7928 C.ar    
   2 C2            -1.9671     1.2613     1.9673 C.ar    
   3 C3            -0.8702     0.5303     2.3947 C.ar    
   4 C4             0.3357     1.1657     2.6504 C.ar    
   5 C5             0.4572     2.5348     2.4813 C.ar    
   6 C6            -0.6283     3.2839     2.0540 C.ar    
   7 C7            -3.0108     3.4332     1.3338 C.2     
   8 O8            -3.7845     3.9073     2.1441 O.2     
   9 N9            -3.2132     3.6268     0.0155 N.am    
  10 N10           -0.5040     4.6584     1.8844 N.pl3   
  11 C11            0.1832     5.4211     2.8347 C.ar    
  12 C12            0.4036     6.7766     2.6136 C.ar    
  13 C13            0.6420     4.8280     4.0033 C.ar    
  14 C14            1.3203     5.5834     4.9400 C.ar    
  15 C15            1.5431     6.9302     4.7158 C.ar    
  16 C16            1.0834     7.5268     3.5555 C.ar    
  17 F17            1.3990     0.4443     3.0676 F       
  18 F18           -0.0454     7.3590     1.4803 F       
  19 I19            2.5720     8.0706     6.1406 I       
  20 O20           -3.1461     0.6371     1.7187 O.3     
  21 C21           -3.3698     0.1735     0.4612 C.ar    
  22 C22           -4.5599    -0.4705     0.1610 C.ar    
  23 C23           -4.7851    -0.9429    -1.1248 C.ar    
  24 C24           -3.8173    -0.7688    -2.1063 C.ar    
  25 C25           -2.6322    -0.1267    -1.8028 C.ar    
  26 C26           -2.4088     0.3497    -0.5252 C.ar    
  27 N27           -5.9828    -1.5928    -1.4312 N.am    
  28 S28           -6.0107    -3.2396    -1.6033 S.o2    
  29 O29           -7.3682    -3.5381    -1.8991 O.2     
  30 O30           -4.9794    -3.5114    -2.5423 O.2     
  31 C31           -5.5622    -3.8737     0.0360 C.3     
  32 C32           -5.7202    -5.3954     0.0550 C.3     
  33 F33           -0.9760    -0.8060     2.5634 F       
  34 H34            1.4005     3.0205     2.6830 H       
  35 H35           -2.5962     3.2488    -0.6306 H       
  36 H36           -3.9759     4.1440    -0.2873 H       
  37 H37           -0.8939     5.0885     1.1073 H       
  38 H38            0.4682     3.7768     4.1801 H       
  39 H39            1.6771     5.1220     5.8489 H       
  40 H40            1.2553     8.5794     3.3852 H       
  41 H41           -5.3103    -0.6048     0.9260 H       
  42 H42           -3.9913    -1.1359    -3.1070 H       
  43 H43           -1.8807     0.0072    -2.5669 H       
  44 H44           -1.4814     0.8511    -0.2911 H       
  45 H45           -6.7982    -1.0796    -1.5433 H       
  46 H46           -4.5269    -3.6131     0.2556 H       
  47 H47           -6.2156    -3.4312     0.7880 H       
  48 H48           -6.7555    -5.6560    -0.1646 H       
  49 H49           -5.0668    -5.8379    -0.6969 H       
  50 H50           -5.4507    -5.7764     1.0400 H       
@<TRIPOS>BOND
   1    1    2 ar
   2    1    6 ar
   3    1    7 1
   4    2    3 ar
   5    2   20 1
   6    3    4 ar
   7    3   33 1
   8    4    5 ar
   9    4   17 1
  10    5    6 ar
  11    5   34 1
  12    6   10 1
  13    7    8 2
  14    7    9 am
  15    9   35 1
  16    9   36 1
  17   10   11 1
  18   10   37 1
  19   11   13 ar
  20   11   12 ar
  21   12   16 ar
  22   12   18 1
  23   13   14 ar
  24   13   38 1
  25   14   15 ar
  26   14   39 1
  27   15   16 ar
  28   15   19 1
  29   16   40 1
  30   20   21 1
  31   21   22 ar
  32   21   26 ar
  33   22   23 ar
  34   22   41 1
  35   23   24 ar
  36   23   27 1
  37   24   25 ar
  38   24   42 1
  39   25   26 ar
  40   25   43 1
  41   26   44 1
  42   27   28 am
  43   27   45 1
  44   28   29 2
  45   28   30 2
  46   28   31 1
  47   31   32 1
  48   31   46 1
  49   31   47 1
  50   32   48 1
  51   32   49 1
  52   32   50 1

#	End of record

