#	Name: ASD03330642
#	Creating user name:	WinNT
#	Creation time:	15. 06. 2019 20:37

#	Modifying user name:	WinNT
#	Modification time:	15. 06. 2019 20:37

#	Program:	/corina/corina34_cracker 3.40 0067  02.08.2006

@<TRIPOS>MOLECULE
ASD03330642
  64   66    0    0    0
SMALL
NO_CHARGES


@<TRIPOS>ATOM
   1 C1            -0.0854     2.3458    -1.0049 C.2     
   2 N2            -0.1845     1.2055    -1.7257 N.pl3   
   3 C3             1.2433     2.5974    -0.8302 C.2     
   4 N4             1.9328     1.6224    -1.4581 N.2     
   5 C5             1.0834     0.7836    -2.0047 C.2     
   6 C6             1.4401    -0.4163    -2.7898 C.ar    
   7 C7             1.8227     3.7316    -0.0882 C.2     
   8 O8             1.0933     4.5504     0.4378 O.2     
   9 C9             3.7366     4.9887     0.7448 C.3     
  10 N10            3.1608     3.8614     0.0073 N.am    
  11 C11            3.8114     4.6399     2.2326 C.3     
  12 C12            4.6503     3.3739     2.4182 C.3     
  13 C13            4.4588     5.7972     2.9958 C.3     
  14 C14            2.3998     4.3999     2.7718 C.3     
  15 C15            5.1223     5.2735     0.2254 C.2     
  16 N16            5.6990     6.4681     0.4637 N.am    
  17 O17            5.7186     4.4277    -0.4071 O.2     
  18 C18            7.0047     6.7811    -0.1222 C.3     
  19 C19           -1.4369     0.5506    -2.1134 C.3     
  20 C20           -2.3970     1.5988    -2.6842 C.3     
  21 C21           -3.2077     2.2246    -1.5536 C.3     
  22 N22           -2.4141     2.3148    -0.3261 N.3     
  23 C23           -1.2396     3.1796    -0.5121 C.3     
  24 C24           -3.2364     2.7786     0.7995 C.3     
  25 C25            2.2336    -0.2961    -3.9464 C.ar    
  26 C26            2.5625    -1.4376    -4.6769 C.ar    
  27 C27            2.1106    -2.6743    -4.2644 C.ar    
  28 C28            1.3294    -2.7922    -3.1265 C.ar    
  29 C29            0.9980    -1.6750    -2.3869 C.ar    
  30 C30            2.7141     1.0298    -4.3834 C.2     
  31 O31            2.3453     2.0319    -3.8021 O.2     
  32 N32            3.5614     1.1293    -5.4268 N.am    
  33 H33            3.1095     5.8699     0.6092 H       
  34 H34            3.7426     3.2084    -0.4122 H       
  35 H35            5.6559     3.5449     2.0341 H       
  36 H36            4.7035     3.1255     3.4782 H       
  37 H37            4.1890     2.5495     1.8745 H       
  38 H38            3.8632     6.6999     2.8607 H       
  39 H39            4.5088     5.5502     4.0563 H       
  40 H40            5.4658     5.9658     2.6142 H       
  41 H41            1.9385     3.5754     2.2281 H       
  42 H42            2.4530     4.1514     3.8317 H       
  43 H43            1.8021     5.3018     2.6396 H       
  44 H44            5.2495     7.1206     1.0232 H       
  45 H45            7.7422     6.0583     0.2268 H       
  46 H46            6.9360     6.7340    -1.2090 H       
  47 H47            7.3075     7.7837     0.1797 H       
  48 H48           -1.2328    -0.2068    -2.8702 H       
  49 H49           -1.8881     0.0811    -1.2393 H       
  50 H50           -1.8255     2.3750    -3.1931 H       
  51 H51           -3.0729     1.1228    -3.3945 H       
  52 H52           -3.5230     3.2249    -1.8503 H       
  53 H53           -4.0902     1.6132    -1.3651 H       
  54 H54           -0.9746     3.6434     0.4380 H       
  55 H55           -1.4692     3.9532    -1.2449 H       
  56 H56           -4.0556     2.0786     0.9636 H       
  57 H57           -2.6224     2.8365     1.6983 H       
  58 H58           -3.6411     3.7647     0.5717 H       
  59 H59            3.1706    -1.3536    -5.5655 H       
  60 H60            2.3673    -3.5561    -4.8326 H       
  61 H61            0.9808    -3.7653    -2.8137 H       
  62 H62            0.3888    -1.7753    -1.5008 H       
  63 H63            3.8556     0.3297    -5.8905 H       
  64 H64            3.8771     2.0004    -5.7139 H       
@<TRIPOS>BOND
   1    1    2 1
   2    1    3 2
   3    1   23 1
   4    2   19 1
   5    2    5 1
   6    3    4 1
   7    3    7 1
   8    4    5 2
   9    5    6 1
  10    6   25 ar
  11    6   29 ar
  12    7    8 2
  13    7   10 am
  14    9   10 1
  15    9   11 1
  16    9   15 1
  17    9   33 1
  18   10   34 1
  19   11   12 1
  20   11   13 1
  21   11   14 1
  22   12   35 1
  23   12   36 1
  24   12   37 1
  25   13   38 1
  26   13   39 1
  27   13   40 1
  28   14   41 1
  29   14   42 1
  30   14   43 1
  31   15   16 am
  32   15   17 2
  33   16   18 1
  34   16   44 1
  35   18   45 1
  36   18   46 1
  37   18   47 1
  38   19   20 1
  39   19   48 1
  40   19   49 1
  41   20   21 1
  42   20   50 1
  43   20   51 1
  44   21   22 1
  45   21   52 1
  46   21   53 1
  47   22   23 1
  48   22   24 1
  49   23   54 1
  50   23   55 1
  51   24   56 1
  52   24   57 1
  53   24   58 1
  54   25   26 ar
  55   25   30 1
  56   26   27 ar
  57   26   59 1
  58   27   28 ar
  59   27   60 1
  60   28   29 ar
  61   28   61 1
  62   29   62 1
  63   30   31 2
  64   30   32 am
  65   32   63 1
  66   32   64 1

#	End of record

