#	Name: ASD01811704
#	Creating user name:	WinNT
#	Creation time:	15. 06. 2019 19:27

#	Modifying user name:	WinNT
#	Modification time:	15. 06. 2019 19:27

#	Program:	/corina/corina34_cracker 3.40 0067  02.08.2006

@<TRIPOS>MOLECULE
ASD01811704
  62   66    0    0    0
SMALL
NO_CHARGES


@<TRIPOS>ATOM
   1 C1            -0.0163     1.3750     0.0284 C.ar    
   2 C2             0.0024    -0.0042     0.0207 C.ar    
   3 C3             1.2070    -0.6856    -0.0127 C.ar    
   4 C4             2.4013     0.0086    -0.0386 C.ar    
   5 C5             2.3993     1.3946    -0.0318 C.ar    
   6 C6             1.1827     2.0871     0.0020 C.ar    
   7 C7             1.1692     3.5666     0.0096 C.2     
   8 C8            -0.0306     4.2542    -0.0801 C.2     
   9 C9             0.0023     5.6594    -0.0694 C.2     
  10 N10            1.1971     6.2791     0.0275 N.am    
  11 C11            2.3332     5.5581     0.1120 C.2     
  12 N12            2.3205     4.2540     0.1090 N.2     
  13 C13            1.2601     7.7427     0.0404 C.3     
  14 C14            1.9030     8.2140     1.3464 C.3     
  15 C15            1.9688     9.7425     1.3599 C.3     
  16 C16            2.8065    10.2274     0.1750 C.3     
  17 C17            2.1636     9.7561    -1.1310 C.3     
  18 C18            2.0978     8.2276    -1.1445 C.3     
  19 O19           -1.0295     6.3063    -0.1465 O.2     
  20 O20            3.5720     2.0779    -0.0568 O.3     
  21 C21            4.7730     1.3043    -0.0897 C.3     
  22 C22            5.9643     2.2269    -0.1140 C.ar    
  23 C23            6.4765     2.6592    -1.3239 C.ar    
  24 C24            6.5381     2.6429     1.0738 C.ar    
  25 C25            7.6291     3.4883     1.0572 C.ar    
  26 C26            8.1522     3.9225    -0.1586 C.ar    
  27 C27            7.5672     3.5047    -1.3518 C.ar    
  28 C28            9.3256     4.8319    -0.1825 C.2     
  29 C29           10.0113     5.3355     0.9399 C.2     
  30 N30           10.9830     6.0980     0.5135 N.2     
  31 N31           10.9566     6.1113    -0.8863 N.pl3   
  32 C32            9.9394     5.3269    -1.2960 C.2     
  33 C33           11.8785     6.8463    -1.7558 C.3     
  34 O34            1.4974     7.7874    -2.3642 O.3     
  35 H35           -0.9583     1.9028     0.0504 H       
  36 H36           -0.9265    -0.5547     0.0412 H       
  37 H37            1.2132    -1.7656    -0.0181 H       
  38 H38            3.3374    -0.5294    -0.0639 H       
  39 H39           -0.9680     3.7234    -0.1567 H       
  40 H40            3.2787     6.0742     0.1888 H       
  41 H41            0.2522     8.1505    -0.0362 H       
  42 H42            1.3062     7.8685     2.1905 H       
  43 H43            2.9109     7.8063     1.4230 H       
  44 H44            0.9608    10.1503     1.2832 H       
  45 H45            2.4268    10.0783     2.2902 H       
  46 H46            2.8534    11.3164     0.1846 H       
  47 H47            3.8145     9.8197     0.2516 H       
  48 H48            1.1557    10.1639    -1.2076 H       
  49 H49            2.7605    10.1016    -1.9751 H       
  50 H50            3.1058     7.8199    -1.0679 H       
  51 H51            4.8218     0.6712     0.7963 H       
  52 H52            4.7787     0.6799    -0.9831 H       
  53 H53            6.0225     2.3344    -2.2484 H       
  54 H54            6.1315     2.3060     2.0159 H       
  55 H55            8.0761     3.8128     1.9853 H       
  56 H56            7.9664     3.8417    -2.2971 H       
  57 H57            9.7747     5.1282     1.9731 H       
  58 H58            9.6595     5.1284    -2.3200 H       
  59 H59           12.7361     6.2162    -1.9914 H       
  60 H60           11.3663     7.1224    -2.6775 H       
  61 H61           12.2189     7.7473    -1.2455 H       
  62 H62            1.9764     8.0594    -3.1590 H       
@<TRIPOS>BOND
   1    1    2 ar
   2    1    6 ar
   3    1   35 1
   4    2    3 ar
   5    2   36 1
   6    3    4 ar
   7    3   37 1
   8    4    5 ar
   9    4   38 1
  10    5    6 ar
  11    5   20 1
  12    6    7 1
  13    7    8 2
  14    7   12 1
  15    8    9 1
  16    8   39 1
  17    9   10 am
  18    9   19 2
  19   10   11 1
  20   10   13 1
  21   11   12 2
  22   11   40 1
  23   13   14 1
  24   13   18 1
  25   13   41 1
  26   14   15 1
  27   14   42 1
  28   14   43 1
  29   15   16 1
  30   15   44 1
  31   15   45 1
  32   16   17 1
  33   16   46 1
  34   16   47 1
  35   17   18 1
  36   17   48 1
  37   17   49 1
  38   18   34 1
  39   18   50 1
  40   20   21 1
  41   21   22 1
  42   21   51 1
  43   21   52 1
  44   22   24 ar
  45   22   23 ar
  46   23   27 ar
  47   23   53 1
  48   24   25 ar
  49   24   54 1
  50   25   26 ar
  51   25   55 1
  52   26   27 ar
  53   26   28 1
  54   27   56 1
  55   28   29 1
  56   28   32 2
  57   29   30 2
  58   29   57 1
  59   30   31 1
  60   31   32 1
  61   31   33 1
  62   32   58 1
  63   33   59 1
  64   33   60 1
  65   33   61 1
  66   34   62 1

#	End of record

