#	Name: ASD05740007
#	Creating user name:	WinNT
#	Creation time:	15. 06. 2019 21:02

#	Modifying user name:	WinNT
#	Modification time:	15. 06. 2019 21:02

#	Program:	/corina/corina34_cracker 3.40 0067  02.08.2006

@<TRIPOS>MOLECULE
ASD05740007
  55   58    0    0    0
SMALL
NO_CHARGES


@<TRIPOS>ATOM
   1 C1            -0.9798     0.5293    -0.2454 C.ar    
   2 C2            -0.8452     2.6967    -1.0761 C.ar    
   3 N3             0.6161     4.5108    -0.7049 N.ar    
   4 C4            -0.4112     5.3516    -0.6081 C.ar    
   5 C5            -1.7303     4.8878    -0.7504 C.ar    
   6 C6            -1.9482     3.5348    -0.9890 C.ar    
   7 C7            -0.1899     6.7803    -0.3562 C.2     
   8 C8            -1.2728     7.5923    -0.2662 C.2     
   9 C9            -2.5701     7.0539    -0.4146 C.2     
  10 O10           -2.7653     5.7470    -0.6502 O.3     
  11 C11           -1.0921     9.0659    -0.0080 C.3     
  12 C12           -1.0929     9.8094    -1.3188 C.ar    
  13 C13            0.1040    10.1086    -1.9445 C.ar    
  14 O14           -3.5339     7.7935    -0.3313 O.2     
  15 C15           -2.2887    10.8734    -3.1080 C.ar    
  16 C16           -1.0849    11.1764    -3.7287 C.ar    
  17 C17            0.1077    10.7904    -3.1469 C.ar    
  18 O18           -1.0111     1.3692    -1.3079 O.3     
  19 N19           -3.4971    11.2627    -3.6943 N.am    
  20 S20           -3.6589    11.2528    -5.3423 S.o2    
  21 O21           -5.0166    11.6095    -5.5633 O.2     
  22 O22           -2.5997    12.0803    -5.8034 O.2     
  23 C23            1.2043     7.3310    -0.2009 C.3     
  24 N24           -1.2335    -0.7561    -0.4310 N.ar    
  25 C25           -1.2113    -1.6037     0.5845 C.ar    
  26 C26           -0.9178    -1.1300     1.8536 C.ar    
  27 C27           -0.6571     0.2221     2.0114 C.ar    
  28 N28           -0.6908     1.0134     0.9518 N.ar    
  29 C29           -2.2900    10.1871    -1.8979 C.ar    
  30 F30           -3.4593     9.8898    -1.2899 F       
  31 C31           -3.3695     9.5256    -5.8152 C.3     
  32 C32           -3.4930     9.3850    -7.3337 C.3     
  33 C33            0.4359     3.2301    -0.9294 C.ar    
  34 C34            1.6330     2.3202    -1.0299 C.3     
  35 H35           -2.9495     3.1466    -1.1038 H       
  36 H36           -1.9091     9.4284     0.6158 H       
  37 H37           -0.1436     9.2316     0.5031 H       
  38 H38            1.0379     9.8090    -1.4923 H       
  39 H39           -1.0802    11.7132    -4.6658 H       
  40 H40            1.0442    11.0221    -3.6324 H       
  41 H41           -4.2405    11.5386    -3.1356 H       
  42 H42            1.9280     6.5227    -0.3057 H       
  43 H43            1.3856     8.0829    -0.9690 H       
  44 H44            1.3077     7.7858     0.7842 H       
  45 H45           -1.4196    -2.6516     0.4267 H       
  46 H46           -0.8932    -1.7995     2.7007 H       
  47 H47           -0.4251     0.6240     2.9867 H       
  48 H48           -2.3691     9.2262    -5.5027 H       
  49 H49           -4.1080     8.8874    -5.3299 H       
  50 H50           -4.4934     9.6845    -7.6461 H       
  51 H51           -2.7545    10.0232    -7.8189 H       
  52 H52           -3.3190     8.3472    -7.6178 H       
  53 H53            1.9665     2.2717    -2.0666 H       
  54 H54            2.4385     2.7093    -0.4070 H       
  55 H55            1.3600     1.3216    -0.6889 H       
@<TRIPOS>BOND
   1    1   24 ar
   2    1   18 1
   3    1   28 ar
   4    2   18 1
   5    2   33 ar
   6    2    6 ar
   7    3    4 ar
   8    3   33 ar
   9    4    5 ar
  10    4    7 1
  11    5    6 ar
  12    5   10 1
  13    6   35 1
  14    7    8 2
  15    7   23 1
  16    8    9 1
  17    8   11 1
  18    9   10 1
  19    9   14 2
  20   11   12 1
  21   11   36 1
  22   11   37 1
  23   12   13 ar
  24   12   29 ar
  25   13   17 ar
  26   13   38 1
  27   15   16 ar
  28   15   19 1
  29   15   29 ar
  30   16   17 ar
  31   16   39 1
  32   17   40 1
  33   19   20 am
  34   19   41 1
  35   20   21 2
  36   20   22 2
  37   20   31 1
  38   23   42 1
  39   23   43 1
  40   23   44 1
  41   24   25 ar
  42   25   26 ar
  43   25   45 1
  44   26   27 ar
  45   26   46 1
  46   27   28 ar
  47   27   47 1
  48   29   30 1
  49   31   32 1
  50   31   48 1
  51   31   49 1
  52   32   50 1
  53   32   51 1
  54   32   52 1
  55   33   34 1
  56   34   53 1
  57   34   54 1
  58   34   55 1

#	End of record

