#	Name: ASD01152551
#	Creating user name:	WinNT
#	Creation time:	15. 06. 2019 19:06

#	Modifying user name:	WinNT
#	Modification time:	15. 06. 2019 19:06

#	Program:	/corina/corina34_cracker 3.40 0067  02.08.2006

@<TRIPOS>MOLECULE
ASD01152551
  43   45    0    0    0
SMALL
NO_CHARGES


@<TRIPOS>ATOM
   1 C1             0.0180     1.2186    -0.5218 C.2     
   2 N2            -0.0458    -0.0858    -0.4901 N.2     
   3 N3            -1.1757    -0.7510    -0.0144 N.am    
   4 C4            -2.3335    -0.1186     0.2386 C.2     
   5 C5            -2.4935     1.3440    -0.1035 C.3     
   6 C6            -1.1242     1.9922    -0.0119 C.2     
   7 C7            -3.0462     1.4866    -1.5230 C.3     
   8 O8            -0.9808     3.1032     0.4553 O.2     
   9 C9            -1.1003    -2.1313     0.2075 C.ar    
  10 O10           -3.2545    -0.7246     0.7436 O.2     
  11 C11           -3.3184     2.9403    -1.8125 C.ar    
  12 C12           -2.0884    -2.9707    -0.2906 C.ar    
  13 C13           -0.0344    -2.6637     0.9212 C.ar    
  14 C14            0.0382    -4.0255     1.1386 C.ar    
  15 C15           -0.9506    -4.8602     0.6451 C.ar    
  16 C16           -2.0119    -4.3319    -0.0710 C.ar    
  17 C17           -2.2994     3.7565    -2.2694 C.ar    
  18 C18           -4.5880     3.4558    -1.6265 C.ar    
  19 C19           -4.8415     4.7885    -1.8914 C.ar    
  20 C20           -2.5517     5.0961    -2.5362 C.ar    
  21 C21           -3.8254     5.6110    -2.3435 C.ar    
  22 Cl22          -4.1453     7.2846    -2.6757 Cl      
  23 F23           -0.8774    -6.1922     0.8584 F       
  24 F24           -1.0602     3.2516    -2.4555 F       
  25 O25            1.1190     1.8475    -1.0105 O.3     
  26 C26            2.1847     1.0191    -1.4797 C.3     
  27 O27           -1.5523     5.9013    -2.9855 O.3     
  28 C28           -1.3769     5.9894    -4.4009 C.3     
  29 H29           -3.1716     1.8172     0.6067 H       
  30 H30           -2.3167     1.1044    -2.2371 H       
  31 H31           -3.9725     0.9190    -1.6110 H       
  32 H32           -2.9162    -2.5592    -0.8491 H       
  33 H33            0.7373    -2.0133     1.3056 H       
  34 H34            0.8669    -4.4399     1.6935 H       
  35 H35           -2.7802    -4.9849    -0.4578 H       
  36 H36           -5.3832     2.8158    -1.2739 H       
  37 H37           -5.8342     5.1881    -1.7455 H       
  38 H38            2.5436     0.3920    -0.6636 H       
  39 H39            1.8236     0.3876    -2.2914 H       
  40 H40            2.9996     1.6459    -1.8418 H       
  41 H41           -1.1585     4.9998    -4.8023 H       
  42 H42           -2.2895     6.3732    -4.8569 H       
  43 H43           -0.5488     6.6625    -4.6232 H       
@<TRIPOS>BOND
   1    1    2 2
   2    1   25 1
   3    1    6 1
   4    2    3 1
   5    3    4 am
   6    3    9 1
   7    4    5 1
   8    4   10 2
   9    5    6 1
  10    5    7 1
  11    5   29 1
  12    6    8 2
  13    7   11 1
  14    7   30 1
  15    7   31 1
  16    9   12 ar
  17    9   13 ar
  18   11   17 ar
  19   11   18 ar
  20   12   16 ar
  21   12   32 1
  22   13   14 ar
  23   13   33 1
  24   14   15 ar
  25   14   34 1
  26   15   16 ar
  27   15   23 1
  28   16   35 1
  29   17   24 1
  30   17   20 ar
  31   18   19 ar
  32   18   36 1
  33   19   21 ar
  34   19   37 1
  35   20   27 1
  36   20   21 ar
  37   21   22 1
  38   25   26 1
  39   26   38 1
  40   26   39 1
  41   26   40 1
  42   27   28 1
  43   28   41 1
  44   28   42 1
  45   28   43 1

#	End of record

