#	Name: ASD04560194
#	Creating user name:	WinNT
#	Creation time:	15. 06. 2019 20:49

#	Modifying user name:	WinNT
#	Modification time:	15. 06. 2019 20:49

#	Program:	/corina/corina34_cracker 3.40 0067  02.08.2006

@<TRIPOS>MOLECULE
ASD04560194
  40   42    0    0    0
SMALL
NO_CHARGES


@<TRIPOS>ATOM
   1 C1             3.2378     6.5840     2.4302 C.ar    
   2 C2             4.3509     7.1350     3.0337 C.ar    
   3 C3             5.5879     7.0466     2.4192 C.ar    
   4 C4             5.7127     6.4062     1.1991 C.ar    
   5 C5             4.6023     5.8536     0.5910 C.ar    
   6 C6             3.3604     5.9406     1.2055 C.ar    
   7 N7             2.2336     5.3807     0.5918 N.am    
   8 C8             1.0355     5.9885     0.6998 C.2     
   9 N9            -0.0301     5.5005     0.0344 N.am    
  10 O10            0.9160     6.9771     1.3976 O.2     
  11 C11           -1.2952     6.0730     0.2215 C.ar    
  12 C12           -1.4167     7.4363     0.4195 C.ar    
  13 C13           -2.4338     5.2713     0.2029 C.ar    
  14 C14           -3.6766     5.8219     0.3841 C.ar    
  15 C15           -2.6732     8.0066     0.6051 C.ar    
  16 S16           -3.1586     9.6785     0.8771 S.3     
  17 C17           -3.8223     7.2098     0.5925 C.ar    
  18 N18           -4.9531     7.9188     0.7864 N.2     
  19 C19           -4.8458     9.1905     0.9541 C.2     
  20 N20           -5.9100    10.0532     1.1641 N.am    
  21 C21           -7.1687     9.5732     1.2055 C.2     
  22 C22           -8.3258    10.5112     1.4339 C.3     
  23 O23           -7.3701     8.3863     1.0589 O.2     
  24 C24            7.0611     6.3117     0.5329 C.3     
  25 F25            6.9351     5.6254    -0.6797 F       
  26 F26            7.5530     7.5989     0.2912 F       
  27 F27            7.9470     5.6232     1.3686 F       
  28 Cl28           6.9851     7.7409     3.1803 Cl      
  29 H29            2.2736     6.6493     2.9123 H       
  30 H30            4.2561     7.6358     3.9859 H       
  31 H31            4.7001     5.3545    -0.3617 H       
  32 H32            2.3152     4.5553     0.0888 H       
  33 H33            0.0788     4.7530    -0.5741 H       
  34 H34           -0.5350     8.0599     0.4304 H       
  35 H35           -2.3372     4.2074     0.0441 H       
  36 H36           -4.5509     5.1881     0.3669 H       
  37 H37           -5.7489    11.0026     1.2813 H       
  38 H38           -7.9521    11.5294     1.5424 H       
  39 H39           -9.0062    10.4626     0.5837 H       
  40 H40           -8.8560    10.2202     2.3407 H       
@<TRIPOS>BOND
   1    1    2 ar
   2    1    6 ar
   3    1   29 1
   4    2    3 ar
   5    2   30 1
   6    3    4 ar
   7    3   28 1
   8    4    5 ar
   9    4   24 1
  10    5    6 ar
  11    5   31 1
  12    6    7 1
  13    7    8 am
  14    7   32 1
  15    8    9 am
  16    8   10 2
  17    9   11 1
  18    9   33 1
  19   11   13 ar
  20   11   12 ar
  21   12   15 ar
  22   12   34 1
  23   13   14 ar
  24   13   35 1
  25   14   17 ar
  26   14   36 1
  27   15   17 ar
  28   15   16 1
  29   16   19 1
  30   17   18 1
  31   18   19 2
  32   19   20 1
  33   20   21 am
  34   20   37 1
  35   21   22 1
  36   21   23 2
  37   22   38 1
  38   22   39 1
  39   22   40 1
  40   24   25 1
  41   24   26 1
  42   24   27 1

#	End of record

