#	Name: ASD01816468
#	Creating user name:	WinNT
#	Creation time:	15. 06. 2019 19:35

#	Modifying user name:	WinNT
#	Modification time:	15. 06. 2019 19:35

#	Program:	/corina/corina34_cracker 3.40 0067  02.08.2006

@<TRIPOS>MOLECULE
ASD01816468
  51   56    0    0    0
SMALL
NO_CHARGES


@<TRIPOS>ATOM
   1 C1            -0.0753     1.3139     0.1752 C.ar    
   2 C2            -0.0313    -0.0708     0.1633 C.ar    
   3 C3             1.1775    -0.7356     0.0944 C.ar    
   4 C4             2.3670    -0.0140     0.0364 C.ar    
   5 C5             2.3170     1.3893     0.0487 C.ar    
   6 C6             1.0925     2.0464     0.1179 C.ar    
   7 N7             3.5830    -0.6735    -0.0320 N.pl3   
   8 C8             4.7604    -0.0315    -0.0899 C.2     
   9 C9             4.8360     1.3395    -0.0849 C.2     
  10 C10            3.5889     2.1344    -0.0136 C.2     
  11 C11            5.9124     2.3238    -0.1357 C.2     
  12 N12            5.3168     3.5352    -0.0967 N.am    
  13 N13            3.9290     3.3914    -0.0238 N.2     
  14 C14            5.9956     4.7643    -0.1253 C.2     
  15 O15            7.1101     2.0976    -0.2005 O.2     
  16 C16            3.5843    -2.1385    -0.0411 C.3     
  17 C17            3.7123    -2.6495     1.3708 C.ar    
  18 C18            2.5879    -2.7652     2.1674 C.ar    
  19 C19            2.7021    -3.2328     3.4619 C.ar    
  20 C20            3.9474    -3.5873     3.9632 C.ar    
  21 C21            5.0744    -3.4705     3.1608 C.ar    
  22 C22            4.9532    -3.0072     1.8653 C.ar    
  23 N23            4.0666    -4.0618     5.2769 N.pl3   
  24 C24            5.2135    -4.4395     5.8856 C.2     
  25 C25            4.9024    -4.8320     7.1427 C.2     
  26 C26            3.5204    -4.6900     7.3087 C.2     
  27 N27            3.0196    -4.2229     6.1935 N.2     
  28 N28            7.3272     4.9311    -0.2011 N.2     
  29 F29            1.2057    -2.0863     0.0836 F       
  30 C30            5.4249     5.9901    -0.0875 C.2     
  31 N31            6.4477     6.9028    -0.1369 N.pl3   
  32 C32            7.6024     6.2070    -0.2064 C.2     
  33 C33            6.3120     8.3614    -0.1215 C.3     
  34 H34           -1.0272     1.8217     0.2249 H       
  35 H35           -0.9507    -0.6357     0.2088 H       
  36 H36            1.0563     3.1258     0.1273 H       
  37 H37            5.6720    -0.6083    -0.1413 H       
  38 H38            2.6521    -2.5000    -0.4752 H       
  39 H39            4.4249    -2.4974    -0.6350 H       
  40 H40            1.6195    -2.4892     1.7769 H       
  41 H41            1.8237    -3.3222     4.0838 H       
  42 H42            6.0445    -3.7451     3.5481 H       
  43 H43            5.8295    -2.9161     1.2407 H       
  44 H44            6.2004    -4.4301     5.4471 H       
  45 H45            5.5981    -5.1915     7.8865 H       
  46 H46            2.9634    -4.9216     8.2046 H       
  47 H47            4.3687     6.2079    -0.0302 H       
  48 H48            8.5923     6.6359    -0.2577 H       
  49 H49            6.3330     8.7174     0.9085 H       
  50 H50            7.1359     8.8089    -0.6775 H       
  51 H51            5.3661     8.6432    -0.5841 H       
@<TRIPOS>BOND
   1    1    2 ar
   2    1    6 ar
   3    1   34 1
   4    2    3 ar
   5    2   35 1
   6    3    4 ar
   7    3   29 1
   8    4    5 ar
   9    4    7 1
  10    5    6 ar
  11    5   10 1
  12    6   36 1
  13    7    8 1
  14    7   16 1
  15    8    9 2
  16    8   37 1
  17    9   10 1
  18    9   11 1
  19   10   13 2
  20   11   12 am
  21   11   15 2
  22   12   13 1
  23   12   14 1
  24   14   30 2
  25   14   28 1
  26   16   17 1
  27   16   38 1
  28   16   39 1
  29   17   18 ar
  30   17   22 ar
  31   18   19 ar
  32   18   40 1
  33   19   20 ar
  34   19   41 1
  35   20   21 ar
  36   20   23 1
  37   21   22 ar
  38   21   42 1
  39   22   43 1
  40   23   24 1
  41   23   27 1
  42   24   25 2
  43   24   44 1
  44   25   26 1
  45   25   45 1
  46   26   27 2
  47   26   46 1
  48   28   32 2
  49   30   31 1
  50   30   47 1
  51   31   32 1
  52   31   33 1
  53   32   48 1
  54   33   49 1
  55   33   50 1
  56   33   51 1

#	End of record

