#	Name: ASD02030177
#	Creating user name:	WinNT
#	Creation time:	15. 06. 2019 20:14

#	Modifying user name:	WinNT
#	Modification time:	15. 06. 2019 20:14

#	Program:	/corina/corina34_cracker 3.40 0067  02.08.2006

@<TRIPOS>MOLECULE
ASD02030177
  64   68    0    0    0
SMALL
NO_CHARGES


@<TRIPOS>ATOM
   1 N1             0.2922     0.7243    -0.8391 N.am    
   2 C2            -0.1153    -0.6874    -0.8077 C.3     
   3 C3            -0.9982    -0.9153     0.4255 C.3     
   4 N4            -2.0379     0.1229     0.4570 N.am    
   5 C5            -1.6304     1.5346     0.4256 C.3     
   6 C6            -0.7472     1.7625    -0.8019 C.3     
   7 C7             1.5961     1.0608    -0.8953 C.2     
   8 C8             2.6346     0.0128    -0.8016 C.2     
   9 N9             3.9316     0.2146    -0.7129 N.2     
  10 N10            2.4195    -1.3155    -0.7864 N.2     
  11 C11            3.5879    -1.8977    -0.6944 C.2     
  12 N12            4.5242    -0.9279    -0.6493 N.pl3   
  13 O13            1.9182     2.2259    -1.0229 O.2     
  14 C14           -3.3418    -0.2136     0.5132 C.2     
  15 C15           -3.7356    -1.6387     0.6105 C.ar    
  16 O16           -4.1944     0.6518     0.4841 O.2     
  17 C17           -0.0933     3.1430    -0.7148 C.3     
  18 C18           -1.5980     1.6726    -2.0704 C.3     
  19 N19           -2.8260    -2.5528     0.9237 N.ar    
  20 C20           -3.1340    -3.8278     1.0208 C.ar    
  21 C21           -4.4293    -4.2660     0.7973 C.ar    
  22 C22           -5.4110    -3.3444     0.4675 C.ar    
  23 C23           -5.0589    -2.0070     0.3780 C.ar    
  24 C24            5.9077    -1.1287    -0.5505 C.ar    
  25 C25            6.7679    -0.0391    -0.5130 C.ar    
  26 C26            6.4202    -2.4170    -0.4843 C.ar    
  27 C27            7.7855    -2.6118    -0.3869 C.ar    
  28 C28            8.6400    -1.5238    -0.3555 C.ar    
  29 C29            8.1308    -0.2395    -0.4156 C.ar    
  30 C30           -2.0633    -4.8258     1.3795 C.3     
  31 C31           -2.6627    -5.9586     2.2311 C.3     
  32 C32           -1.5046    -5.4839     0.1010 C.3     
  33 C33           -1.2467    -6.9547     0.5124 C.3     
  34 C34           -2.4473    -7.2656     1.4403 C.3     
  35 Cl35           8.4282    -4.2223    -0.3034 Cl      
  36 H36           -0.6785    -0.9257    -1.7100 H       
  37 H37            0.7688    -1.3221    -0.7470 H       
  38 H38           -1.4648    -1.8985     0.3647 H       
  39 H39           -0.3900    -0.8514     1.3277 H       
  40 H40           -2.5145     2.1693     0.3649 H       
  41 H41           -1.0672     1.7729     1.3279 H       
  42 H42            3.7693    -2.9618    -0.6583 H       
  43 H43            0.6610     3.1387     0.0720 H       
  44 H44            0.3774     3.3829    -1.6682 H       
  45 H45           -0.8526     3.8909    -0.4862 H       
  46 H46           -2.3781     2.4332    -2.0394 H       
  47 H47           -0.9664     1.8354    -2.9437 H       
  48 H48           -2.0554     0.6851    -2.1318 H       
  49 H49           -4.6717    -5.3152     0.8788 H       
  50 H50           -6.4279    -3.6610     0.2882 H       
  51 H51           -5.7981    -1.2619     0.1233 H       
  52 H52            6.3713     0.9643    -0.5602 H       
  53 H53            5.7533    -3.2661    -0.5084 H       
  54 H54            9.7063    -1.6779    -0.2794 H       
  55 H55            8.8001     0.6077    -0.3909 H       
  56 H56           -1.2609    -4.3315     1.9271 H       
  57 H57           -2.1506    -6.0147     3.1916 H       
  58 H58           -3.7280    -5.7866     2.3849 H       
  59 H59           -2.2376    -5.4360    -0.7043 H       
  60 H60           -0.5738    -5.0031    -0.2000 H       
  61 H61           -1.2542    -7.6071    -0.3607 H       
  62 H62           -0.3057    -7.0447     1.0551 H       
  63 H63           -2.2044    -8.0851     2.1168 H       
  64 H64           -3.3325    -7.5054     0.8513 H       
@<TRIPOS>BOND
   1    1    2 1
   2    1    7 am
   3    1    6 1
   4    2    3 1
   5    2   36 1
   6    2   37 1
   7    3    4 1
   8    3   38 1
   9    3   39 1
  10    4    5 1
  11    4   14 am
  12    5    6 1
  13    5   40 1
  14    5   41 1
  15    6   17 1
  16    6   18 1
  17    7    8 1
  18    7   13 2
  19    8    9 2
  20    8   10 1
  21    9   12 1
  22   10   11 2
  23   11   12 1
  24   11   42 1
  25   12   24 1
  26   14   15 1
  27   14   16 2
  28   15   19 ar
  29   15   23 ar
  30   17   43 1
  31   17   44 1
  32   17   45 1
  33   18   46 1
  34   18   47 1
  35   18   48 1
  36   19   20 ar
  37   20   21 ar
  38   20   30 1
  39   21   22 ar
  40   21   49 1
  41   22   23 ar
  42   22   50 1
  43   23   51 1
  44   24   25 ar
  45   24   26 ar
  46   25   29 ar
  47   25   52 1
  48   26   27 ar
  49   26   53 1
  50   27   28 ar
  51   27   35 1
  52   28   29 ar
  53   28   54 1
  54   29   55 1
  55   30   31 1
  56   30   32 1
  57   30   56 1
  58   31   34 1
  59   31   57 1
  60   31   58 1
  61   32   33 1
  62   32   59 1
  63   32   60 1
  64   33   34 1
  65   33   61 1
  66   33   62 1
  67   34   63 1
  68   34   64 1

#	End of record

