#	Name: ASD09790009
#	Creating user name:	WinNT
#	Creation time:	15. 06. 2019 21:23

#	Modifying user name:	WinNT
#	Modification time:	15. 06. 2019 21:23

#	Program:	/corina/corina34_cracker 3.40 0067  02.08.2006

@<TRIPOS>MOLECULE
ASD09790009
  40   43    0    0    0
SMALL
NO_CHARGES


@<TRIPOS>ATOM
   1 C1            -0.2541     2.1072    -0.5398 C.2     
   2 C2            -0.4534     0.6713    -0.2436 C.ar    
   3 C3             0.5837    -0.0304     0.3905 C.ar    
   4 O4             1.7334     0.5848     0.7326 O.3     
   5 C5             2.0770     1.7867     0.2274 C.ar    
   6 C6             1.1276     2.6042    -0.4114 C.ar    
   7 C7            -1.6392     0.0251    -0.5851 C.ar    
   8 C8            -1.7902    -1.3153    -0.2999 C.ar    
   9 C9            -0.7669    -2.0135     0.3226 C.ar    
  10 C10            0.4099    -1.3829     0.6666 C.ar    
  11 C11            1.4929     3.8591    -0.9147 C.ar    
  12 C12            3.3864     2.2339     0.3345 C.ar    
  13 C13            3.7444     3.4737    -0.1726 C.ar    
  14 C14            2.8031     4.2863    -0.7938 C.ar    
  15 O15           -1.1736     2.8322    -0.8740 O.2     
  16 O16            0.5690     4.6494    -1.5167 O.3     
  17 O17            5.0290     3.8984    -0.0619 O.3     
  18 C18            5.2884     4.8231     0.8834 C.2     
  19 C19            6.6375     5.4154     0.9867 C.ar    
  20 O20            4.4126     5.1695     1.6506 O.2     
  21 C21            7.6450     5.0236     0.1028 C.ar    
  22 C22            8.9028     5.5808     0.2050 C.ar    
  23 C23            6.9097     6.3738     1.9651 C.ar    
  24 C24            8.1719     6.9228     2.0560 C.ar    
  25 C25            9.1672     6.5258     1.1805 C.ar    
  26 C26           10.5438     7.1297     1.2863 C.3     
  27 H27           -2.4353     0.5707    -1.0698 H       
  28 H28           -2.7073    -1.8221    -0.5615 H       
  29 H29           -0.8932    -3.0637     0.5410 H       
  30 H30            1.1983    -1.9398     1.1509 H       
  31 H31            4.1291     1.6142     0.8148 H       
  32 H32            3.0945     5.2515    -1.1812 H       
  33 H33            0.1087     5.2472    -0.9119 H       
  34 H34            7.4401     4.2859    -0.6589 H       
  35 H35            9.6831     5.2785    -0.4778 H       
  36 H36            6.1337     6.6847     2.6489 H       
  37 H37            8.3837     7.6644     2.8120 H       
  38 H38           11.1523     6.5307     1.9638 H       
  39 H39           11.0090     7.1486     0.3007 H       
  40 H40           10.4659     8.1466     1.6709 H       
@<TRIPOS>BOND
   1    1    2 1
   2    1    6 1
   3    1   15 2
   4    2    3 ar
   5    2    7 ar
   6    3    4 1
   7    3   10 ar
   8    4    5 1
   9    5   12 ar
  10    5    6 ar
  11    6   11 ar
  12    7    8 ar
  13    7   27 1
  14    8    9 ar
  15    8   28 1
  16    9   10 ar
  17    9   29 1
  18   10   30 1
  19   11   14 ar
  20   11   16 1
  21   12   13 ar
  22   12   31 1
  23   13   14 ar
  24   13   17 1
  25   14   32 1
  26   16   33 1
  27   17   18 1
  28   18   19 1
  29   18   20 2
  30   19   23 ar
  31   19   21 ar
  32   21   22 ar
  33   21   34 1
  34   22   25 ar
  35   22   35 1
  36   23   24 ar
  37   23   36 1
  38   24   25 ar
  39   24   37 1
  40   25   26 1
  41   26   38 1
  42   26   39 1
  43   26   40 1

#	End of record

