#	Name: ASD03130013
#	Creating user name:	WinNT
#	Creation time:	15. 06. 2019 20:33

#	Modifying user name:	WinNT
#	Modification time:	15. 06. 2019 20:33

#	Program:	/corina/corina34_cracker 3.40 0067  02.08.2006

@<TRIPOS>MOLECULE
ASD03130013
  74   77    0    0    0
SMALL
NO_CHARGES


@<TRIPOS>ATOM
   1 C1            -0.3438     1.6753    -0.3521 C.3     
   2 C2            -0.4309     0.1513    -0.4527 C.3     
   3 C3             0.1899    -0.3148    -1.7708 C.3     
   4 C4             1.6818     0.0315    -1.7824 C.3     
   5 C5             1.8305     1.5215    -1.5235 C.2     
   6 C6             1.1274     2.0999    -0.3317 C.3     
   7 C7             1.2309     3.6137    -0.2485 C.3     
   8 C8             2.5612     2.2189    -2.3432 C.2     
   9 C9             2.7744     3.6970    -2.1939 C.3     
  10 C10            2.6139     4.0843    -0.7195 C.3     
  11 C11            1.0972     5.5939     1.3300 C.3     
  12 C12            0.9288     4.0744     1.1747 C.3     
  13 C13            2.5202     5.9281     0.9246 C.3     
  14 C14            2.9179     7.3990     0.9963 C.3     
  15 C15            2.6545     5.5960    -0.5855 C.3     
  16 C16            3.9912     6.2606    -0.9325 C.3     
  17 C17            3.9161     7.6111    -0.1691 C.3     
  18 C18            3.5943     7.7006     2.3351 C.3     
  19 C19            4.1146     9.1394     2.3310 C.3     
  20 C20            4.8990     9.4018     3.6182 C.3     
  21 C21            5.4193    10.8406     3.6140 C.3     
  22 C22            6.2036    11.1030     4.9012 C.3     
  23 C23            7.4534    10.2207     4.9258 C.3     
  24 C24            6.6174    12.5750     4.9552 C.3     
  25 H25            0.4779     4.0459    -0.9075 H       
  26 H26            1.8461     6.0485    -1.1598 H       
  27 H27            2.0419     8.0339     0.8635 H       
  28 C28            2.5813     7.5279     3.4687 C.3     
  29 O29            0.0279    -1.7287    -1.9001 O.3     
  30 C30            1.7759     1.5076     0.9211 C.3     
  31 H31            3.3955     3.6178    -0.1200 H       
  32 C32            3.5035     5.0842     1.7382 C.3     
  33 H33           -0.8403     2.1254    -1.2118 H       
  34 H34           -0.8309     2.0076     0.5646 H       
  35 H35            0.1082    -0.2986     0.3810 H       
  36 H36           -1.4761    -0.1555    -0.4156 H       
  37 H37           -0.3058     0.1854    -2.6028 H       
  38 H38            2.1950    -0.5297    -1.0015 H       
  39 H39            2.1087    -0.2166    -2.7542 H       
  40 H40            3.0366     1.7108    -3.1692 H       
  41 H41            3.7781     3.9559    -2.5310 H       
  42 H42            2.0388     4.2333    -2.7933 H       
  43 H43            0.3938     6.1141     0.6800 H       
  44 H44            0.9290     5.8823     2.3676 H       
  45 H45           -0.0967     3.8032     1.4258 H       
  46 H46            1.6068     3.5697     1.8629 H       
  47 H47            4.8259     5.6596    -0.5718 H       
  48 H48            4.0712     6.4285    -2.0065 H       
  49 H49            3.5548     8.3965    -0.8329 H       
  50 H50            4.8985     7.8744     0.2229 H       
  51 H51            4.4272     7.0134     2.4843 H       
  52 H52            4.7679     9.2870     1.4710 H       
  53 H53            3.2734     9.8298     2.2710 H       
  54 H54            4.2457     9.2542     4.4782 H       
  55 H55            5.7403     8.7113     3.6782 H       
  56 H56            6.0726    10.9882     2.7540 H       
  57 H57            4.5780    11.5310     3.5540 H       
  58 H58            5.5773    10.8699     5.7623 H       
  59 H59            8.0121    10.4076     5.8428 H       
  60 H60            7.1586     9.1720     4.8873 H       
  61 H61            8.0797    10.4538     4.0647 H       
  62 H62            5.7271    13.2036     4.9377 H       
  63 H63            7.1762    12.7619     5.8722 H       
  64 H64            7.2438    12.8081     4.0941 H       
  65 H65            1.7895     8.2697     3.3645 H       
  66 H66            2.1506     6.5277     3.4218 H       
  67 H67            3.0822     7.6633     4.4273 H       
  68 H68            0.3990    -2.0942    -2.7148 H       
  69 H69            1.6992     0.4207     0.8907 H       
  70 H70            2.8262     1.7968     0.9578 H       
  71 H71            1.2644     1.8833     1.8073 H       
  72 H72            3.2726     4.0274     1.6043 H       
  73 H73            4.5198     5.2802     1.3966 H       
  74 H74            3.4185     5.3438     2.7935 H       
@<TRIPOS>BOND
   1    1    2 1
   2    1    6 1
   3    1   33 1
   4    1   34 1
   5    2    3 1
   6    2   35 1
   7    2   36 1
   8    3    4 1
   9    3   29 1
  10    3   37 1
  11    4    5 1
  12    4   38 1
  13    4   39 1
  14    5    8 2
  15    5    6 1
  16    6    7 1
  17    6   30 1
  18    7   10 1
  19    7   25 1
  20    7   12 1
  21    8    9 1
  22    8   40 1
  23    9   10 1
  24    9   41 1
  25    9   42 1
  26   10   15 1
  27   10   31 1
  28   11   12 1
  29   11   13 1
  30   11   43 1
  31   11   44 1
  32   12   45 1
  33   12   46 1
  34   13   14 1
  35   13   32 1
  36   13   15 1
  37   14   17 1
  38   14   18 1
  39   14   27 1
  40   15   16 1
  41   15   26 1
  42   16   17 1
  43   16   47 1
  44   16   48 1
  45   17   49 1
  46   17   50 1
  47   18   19 1
  48   18   28 1
  49   18   51 1
  50   19   20 1
  51   19   52 1
  52   19   53 1
  53   20   21 1
  54   20   54 1
  55   20   55 1
  56   21   22 1
  57   21   56 1
  58   21   57 1
  59   22   23 1
  60   22   24 1
  61   22   58 1
  62   23   59 1
  63   23   60 1
  64   23   61 1
  65   24   62 1
  66   24   63 1
  67   24   64 1
  68   28   65 1
  69   28   66 1
  70   28   67 1
  71   29   68 1
  72   30   69 1
  73   30   70 1
  74   30   71 1
  75   32   72 1
  76   32   73 1
  77   32   74 1

#	End of record

