#	Name: ASD01200489
#	Creating user name:	WinNT
#	Creation time:	15. 06. 2019 19:09

#	Modifying user name:	WinNT
#	Modification time:	15. 06. 2019 19:09

#	Program:	/corina/corina34_cracker 3.40 0067  02.08.2006

@<TRIPOS>MOLECULE
ASD01200489
  31   32    0    0    0
SMALL
NO_CHARGES


@<TRIPOS>ATOM
   1 N1             2.2306     1.3387     0.5646 N.ar    
   2 C2             2.2415     0.0208     0.5646 C.ar    
   3 C3             1.2056    -0.6960    -0.0207 C.ar    
   4 C4             0.1516    -0.0017    -0.6090 C.ar    
   5 C5             0.1813     1.3832    -0.5853 C.ar    
   6 C6             1.2474     2.0255     0.0160 C.ar    
   7 N7             1.2212    -2.0949    -0.0195 N.am    
   8 C8             0.0667    -2.7816     0.0900 C.2     
   9 O9            -0.9773    -2.1888     0.2859 O.2     
  10 C10            1.1939    -4.9817    -0.2454 C.2     
  11 C11            0.0691    -4.2485    -0.0273 C.2     
  12 C12           -1.1225    -5.0578     0.0777 C.2     
  13 C13           -0.8835    -6.3566    -0.0595 C.2     
  14 S14            0.8273    -6.6443    -0.3254 S.3     
  15 C15           -1.9350    -7.4342     0.0050 C.3     
  16 C16           -1.9603    -8.2021    -1.3181 C.3     
  17 C17           -1.6084    -8.3977     1.1477 C.3     
  18 H18            3.0642    -0.5070     1.0239 H       
  19 H19           -0.6685    -0.5297    -1.0725 H       
  20 H20           -0.6191     1.9544    -1.0319 H       
  21 H21            1.2755     3.1050     0.0372 H       
  22 H22            2.0630    -2.5706    -0.0975 H       
  23 H23            2.1845    -4.5662    -0.3573 H       
  24 H24           -2.1069    -4.6486     0.2504 H       
  25 H25           -2.9103    -6.9801     0.1803 H       
  26 H26           -2.7208    -8.9815    -1.2714 H       
  27 H27           -2.1930    -7.5156    -2.1322 H       
  28 H28           -0.9850    -8.6561    -1.4933 H       
  29 H29           -1.5904    -7.8507     2.0904 H       
  30 H30           -2.3689    -9.1771     1.1944 H       
  31 H31           -0.6331    -8.8518     0.9725 H       
@<TRIPOS>BOND
   1    1    2 ar
   2    1    6 ar
   3    2    3 ar
   4    2   18 1
   5    3    4 ar
   6    3    7 1
   7    4    5 ar
   8    4   19 1
   9    5    6 ar
  10    5   20 1
  11    6   21 1
  12    7    8 am
  13    7   22 1
  14    8    9 2
  15    8   11 1
  16   10   11 2
  17   10   14 1
  18   10   23 1
  19   11   12 1
  20   12   13 2
  21   12   24 1
  22   13   14 1
  23   13   15 1
  24   15   16 1
  25   15   17 1
  26   15   25 1
  27   16   26 1
  28   16   27 1
  29   16   28 1
  30   17   29 1
  31   17   30 1
  32   17   31 1

#	End of record

