#	Name: ASD01948114
#	Creating user name:	WinNT
#	Creation time:	15. 06. 2019 20:13

#	Modifying user name:	WinNT
#	Modification time:	15. 06. 2019 20:13

#	Program:	/corina/corina34_cracker 3.40 0067  02.08.2006

@<TRIPOS>MOLECULE
ASD01948114
  35   37    0    0    0
SMALL
NO_CHARGES


@<TRIPOS>ATOM
   1 C1             1.7970     1.4187    -1.0548 C.ar    
   2 C2             1.6011     0.0445    -1.1486 C.ar    
   3 C3             1.7834    -0.5978    -2.3655 C.ar    
   4 C4             2.1586     0.1284    -3.4796 C.ar    
   5 C5             2.3533     1.4942    -3.3842 C.ar    
   6 C6             2.1672     2.1400    -2.1745 C.ar    
   7 N7             1.2216    -0.6885    -0.0188 N.pl3   
   8 C8             3.6312    -2.2823    -0.4455 C.2     
   9 C9             2.3516    -2.8722    -0.2942 C.2     
  10 C10            1.1516    -2.0656    -0.0810 C.2     
  11 N11            4.6875    -3.1035    -0.6443 N.am    
  12 F12            1.6202     2.0482     0.1275 F       
  13 I13            2.9228     2.5895    -5.0768 I       
  14 C14            2.2379    -4.2686    -0.3508 C.2     
  15 N15            1.0116    -4.8542    -0.2064 N.am    
  16 C16           -0.0975    -4.1219    -0.0101 C.2     
  17 C17           -0.0590    -2.7265     0.0572 C.2     
  18 C18            4.5106    -4.4445    -0.6945 C.2     
  19 N19            3.3409    -5.0042    -0.5460 N.2     
  20 O20            3.7746    -1.0732    -0.4029 O.2     
  21 C21            0.9038    -6.3140    -0.2676 C.3     
  22 O22           -1.1697    -4.6916     0.1127 O.2     
  23 C23           -1.3276    -1.9440     0.2794 C.3     
  24 H24            1.6325    -1.6645    -2.4414 H       
  25 H25            2.3005    -0.3715    -4.4263 H       
  26 H26            2.3200     3.2067    -2.1032 H       
  27 H27            1.0078    -0.2288     0.8082 H       
  28 H28            5.5761    -2.7295    -0.7517 H       
  29 H29            5.3719    -5.0762    -0.8548 H       
  30 H30            1.0222    -6.7293     0.7331 H       
  31 H31           -0.0741    -6.5899    -0.6622 H       
  32 H32            1.6832    -6.7088    -0.9194 H       
  33 H33           -2.1796    -2.6238     0.2732 H       
  34 H34           -1.2764    -1.4344     1.2416 H       
  35 H35           -1.4444    -1.2078    -0.5159 H       
@<TRIPOS>BOND
   1    1    2 ar
   2    1   12 1
   3    1    6 ar
   4    2    3 ar
   5    2    7 1
   6    3    4 ar
   7    3   24 1
   8    4    5 ar
   9    4   25 1
  10    5    6 ar
  11    5   13 1
  12    6   26 1
  13    7   10 1
  14    7   27 1
  15    8    9 1
  16    8   20 2
  17    8   11 am
  18    9   10 1
  19    9   14 2
  20   10   17 2
  21   11   18 1
  22   11   28 1
  23   14   15 1
  24   14   19 1
  25   15   16 am
  26   15   21 1
  27   16   17 1
  28   16   22 2
  29   17   23 1
  30   18   19 2
  31   18   29 1
  32   21   30 1
  33   21   31 1
  34   21   32 1
  35   23   33 1
  36   23   34 1
  37   23   35 1

#	End of record

