#	Name: ASD04170006
#	Creating user name:	WinNT
#	Creation time:	15. 06. 2019 20:48

#	Modifying user name:	WinNT
#	Modification time:	15. 06. 2019 20:48

#	Program:	/corina/corina34_cracker 3.40 0067  02.08.2006

@<TRIPOS>MOLECULE
ASD04170006
  36   38    0    0    0
SMALL
NO_CHARGES


@<TRIPOS>ATOM
   1 I1             0.0021    -0.0041     0.0020 I       
   2 C2            -0.0263     2.0907     0.0135 C.ar    
   3 C3             1.1615     2.7984     0.0060 C.ar    
   4 C4             1.1425     4.1807     0.0136 C.ar    
   5 C5            -0.0638     4.8553     0.0288 C.ar    
   6 C6            -1.2517     4.1479     0.0368 C.ar    
   7 C7            -1.2334     2.7661     0.0229 C.ar    
   8 C8            -2.5282     1.9951     0.0316 C.3     
   9 N9            -2.7824     1.4498    -1.3086 N.3     
  10 C10           -4.0394     0.6902    -1.3382 C.3     
  11 C11           -3.7817    -0.7467    -0.8753 C.3     
  12 N12           -4.1427    -1.6778    -1.9528 N.3     
  13 C13           -3.3140    -1.4523    -3.1451 C.3     
  14 C14           -3.5580    -0.0355    -3.6722 C.3     
  15 C15           -4.5870     0.6581    -2.7706 C.3     
  16 C16           -5.8810    -0.1655    -2.7813 C.3     
  17 C17           -5.5719    -1.5787    -2.2793 C.3     
  18 H18            2.1041     2.2714    -0.0055 H       
  19 H19            2.0702     4.7336     0.0081 H       
  20 H20           -0.0785     5.9352     0.0348 H       
  21 H21           -2.1942     4.6753     0.0494 H       
  22 H22           -2.4596     1.1777     0.7494 H       
  23 H23           -3.3447     2.6594     0.3144 H       
  24 H24           -2.7862     2.1825    -2.0023 H       
  25 H25           -4.7668     1.1619    -0.6775 H       
  26 H26           -2.7264    -0.8659    -0.6300 H       
  27 H27           -4.3865    -0.9587     0.0063 H       
  28 H28           -2.2620    -1.5670    -2.8839 H       
  29 H29           -3.5791    -2.1774    -3.9147 H       
  30 H30           -2.6234     0.5253    -3.6584 H       
  31 H31           -3.9408    -0.0860    -4.6916 H       
  32 H32           -4.7716     1.6726    -3.1241 H       
  33 H33           -6.6167     0.3018    -2.1268 H       
  34 H34           -6.2731    -0.2163    -3.7971 H       
  35 H35           -5.8185    -2.3026    -3.0560 H       
  36 H36           -6.1639    -1.7855    -1.3878 H       
@<TRIPOS>BOND
   1    1    2 1
   2    2    3 ar
   3    2    7 ar
   4    3    4 ar
   5    3   18 1
   6    4    5 ar
   7    4   19 1
   8    5    6 ar
   9    5   20 1
  10    6    7 ar
  11    6   21 1
  12    7    8 1
  13    8    9 1
  14    8   22 1
  15    8   23 1
  16    9   10 1
  17    9   24 1
  18   10   11 1
  19   10   15 1
  20   10   25 1
  21   11   12 1
  22   11   26 1
  23   11   27 1
  24   12   13 1
  25   12   17 1
  26   13   14 1
  27   13   28 1
  28   13   29 1
  29   14   15 1
  30   14   30 1
  31   14   31 1
  32   15   16 1
  33   15   32 1
  34   16   17 1
  35   16   33 1
  36   16   34 1
  37   17   35 1
  38   17   36 1

#	End of record

