#	Name: ASD02500233
#	Creating user name:	WinNT
#	Creation time:	15. 06. 2019 20:22

#	Modifying user name:	WinNT
#	Modification time:	15. 06. 2019 20:22

#	Program:	/corina/corina34_cracker 3.40 0067  02.08.2006

@<TRIPOS>MOLECULE
ASD02500233
  63   67    0    0    0
SMALL
NO_CHARGES


@<TRIPOS>ATOM
   1 N1            -1.8774     4.6570     1.8929 N.ar    
   2 C2            -2.9823     5.2873     2.2091 C.ar    
   3 C3            -3.7715     4.8885     3.2860 C.ar    
   4 C4            -3.3994     3.8143     4.0429 C.ar    
   5 C5            -2.2124     3.1395     3.7001 C.ar    
   6 C6            -1.7660     2.0276     4.4317 C.ar    
   7 C7            -0.6122     1.4022     4.0685 C.ar    
   8 C8             0.1324     1.8515     2.9800 C.ar    
   9 C9            -0.2710     2.9262     2.2488 C.ar    
  10 C10           -1.4567     3.5983     2.5925 C.ar    
  11 S11            0.6901     3.4736     0.8772 S.o2    
  12 O12            0.8339     4.8797     1.0237 O.2     
  13 O13            1.7949     2.5852     0.7813 O.2     
  14 N14           -0.2206     3.2362    -0.4854 N.am    
  15 C15           -0.5678     1.9468    -0.8737 C.ar    
  16 C16           -1.8788     1.6622    -1.2364 C.ar    
  17 C17           -2.2242     0.3796    -1.6231 C.ar    
  18 C18           -1.2450    -0.6265    -1.6461 C.ar    
  19 C19            0.0700    -0.3242    -1.2783 C.ar    
  20 C20            0.4013     0.9460    -0.9033 C.ar    
  21 O21           -3.5024     0.0953    -1.9779 O.3     
  22 C22           -4.4433     1.1697    -1.9294 C.3     
  23 C23           -1.6015    -1.9951    -2.0556 C.2     
  24 O24           -2.5067    -2.5817    -1.4935 O.2     
  25 N25           -0.9248    -2.5978    -3.0532 N.am    
  26 C26           -1.3329    -3.9232    -3.5397 C.3     
  27 C27           -1.5703    -3.8381    -5.0525 C.3     
  28 N28           -0.4114    -3.1816    -5.6736 N.am    
  29 C29           -0.0033    -1.8562    -5.1871 C.3     
  30 C30            0.2307    -1.9389    -3.6780 C.3     
  31 C31            0.2653    -3.7844    -6.6712 C.2     
  32 C32            1.3563    -3.0635    -7.3675 C.ar    
  33 C33            2.4747    -3.7481    -7.8527 C.ar    
  34 C34            3.4685    -3.0364    -8.4963 C.ar    
  35 N35            3.3722    -1.7313    -8.6546 N.ar    
  36 C36            2.3355    -1.0477    -8.2126 C.ar    
  37 C37            1.2934    -1.6804    -7.5628 C.ar    
  38 O38           -0.0195    -4.9191    -6.9996 O.2     
  39 H39           -3.2890     6.1386     1.6195 H       
  40 H40           -4.6764     5.4286     3.5222 H       
  41 H41           -3.9989     3.4917     4.8813 H       
  42 H42           -2.3342     1.6705     5.2779 H       
  43 H43           -0.2695     0.5469     4.6319 H       
  44 H44            1.0445     1.3389     2.7124 H       
  45 H45           -0.5118     3.9965    -1.0127 H       
  46 H46           -2.6268     2.4409    -1.2160 H       
  47 H47            0.8253    -1.0959    -1.2946 H       
  48 H48            1.4191     1.1754    -0.6241 H       
  49 H49           -5.4245     0.8075    -2.2364 H       
  50 H50           -4.5009     1.5566    -0.9120 H       
  51 H51           -4.1224     1.9644    -2.6027 H       
  52 H52           -0.5448    -4.6473    -3.3332 H       
  53 H53           -2.2531    -4.2284    -3.0416 H       
  54 H54           -1.6850    -4.8419    -5.4618 H       
  55 H55           -2.4700    -3.2551    -5.2494 H       
  56 H56            0.9169    -1.5511    -5.6852 H       
  57 H57           -0.7915    -1.1321    -5.3935 H       
  58 H58            0.3428    -0.9339    -3.2712 H       
  59 H59            1.1327    -2.5184    -3.4817 H       
  60 H60            2.5605    -4.8172    -7.7259 H       
  61 H61            4.3362    -3.5562    -8.8747 H       
  62 H62            2.2982     0.0209    -8.3643 H       
  63 H63            0.4449    -1.1147    -7.2074 H       
@<TRIPOS>BOND
   1    1    2 ar
   2    1   10 ar
   3    2    3 ar
   4    2   39 1
   5    3    4 ar
   6    3   40 1
   7    4    5 ar
   8    4   41 1
   9    5    6 ar
  10    5   10 ar
  11    6    7 ar
  12    6   42 1
  13    7    8 ar
  14    7   43 1
  15    8    9 ar
  16    8   44 1
  17    9   10 ar
  18    9   11 1
  19   11   12 2
  20   11   13 2
  21   11   14 am
  22   14   15 1
  23   14   45 1
  24   15   16 ar
  25   15   20 ar
  26   16   17 ar
  27   16   46 1
  28   17   18 ar
  29   17   21 1
  30   18   19 ar
  31   18   23 1
  32   19   20 ar
  33   19   47 1
  34   20   48 1
  35   21   22 1
  36   22   49 1
  37   22   50 1
  38   22   51 1
  39   23   24 2
  40   23   25 am
  41   25   26 1
  42   25   30 1
  43   26   27 1
  44   26   52 1
  45   26   53 1
  46   27   28 1
  47   27   54 1
  48   27   55 1
  49   28   29 1
  50   28   31 am
  51   29   30 1
  52   29   56 1
  53   29   57 1
  54   30   58 1
  55   30   59 1
  56   31   32 1
  57   31   38 2
  58   32   33 ar
  59   32   37 ar
  60   33   34 ar
  61   33   60 1
  62   34   35 ar
  63   34   61 1
  64   35   36 ar
  65   36   37 ar
  66   36   62 1
  67   37   63 1

#	End of record

