#	Name: ASD01914219
#	Creating user name:	WinNT
#	Creation time:	15. 06. 2019 20:03

#	Modifying user name:	WinNT
#	Modification time:	15. 06. 2019 20:03

#	Program:	/corina/corina34_cracker 3.40 0067  02.08.2006

@<TRIPOS>MOLECULE
ASD01914219
  34   36    0    0    0
SMALL
NO_CHARGES


@<TRIPOS>ATOM
   1 N1            -0.0169     1.3964     0.0097 N.2     
   2 N2             0.0021    -0.0041     0.0020 N.pl3   
   3 C3             1.2269     1.8293     0.0002 C.2     
   4 C4             2.0821     0.7142    -0.0140 C.2     
   5 C5             1.3051    -0.4067    -0.0126 C.2     
   6 C6             1.7880    -1.8056    -0.0243 C.ar    
   7 C7             1.6522     3.2506     0.0033 C.ar    
   8 N8             2.9446     3.5506    -0.0079 N.ar    
   9 C9             3.3636     4.7997    -0.0056 C.ar    
  10 C10            2.4646     5.8501     0.0087 C.ar    
  11 C11            1.1035     5.5806     0.0207 C.ar    
  12 C12            0.6914     4.2591     0.0122 C.ar    
  13 C13            3.1569    -2.0738    -0.0326 C.ar    
  14 C14            0.0964     6.7016     0.0363 C.3     
  15 C15            2.9582     7.2739     0.0117 C.3     
  16 C16            0.8763    -2.8613    -0.0213 C.ar    
  17 C17            1.3329    -4.1633    -0.0323 C.ar    
  18 C18            2.6917    -4.4228    -0.0458 C.ar    
  19 C19            3.6010    -3.3801    -0.0435 C.ar    
  20 H20           -0.7746    -0.5852     0.0063 H       
  21 H21            3.1617     0.7403    -0.0247 H       
  22 H22            4.4237     5.0060    -0.0146 H       
  23 H23           -0.3602     4.0134     0.0211 H       
  24 H24            3.8677    -1.2607    -0.0308 H       
  25 H25           -0.1566     6.9771    -0.9875 H       
  26 H26           -0.8034     6.3744     0.5574 H       
  27 H27            0.5206     7.5640     0.5504 H       
  28 H28            3.0674     7.6228    -1.0152 H       
  29 H29            2.2413     7.9059     0.5358 H       
  30 H30            3.9230     7.3230     0.5166 H       
  31 H31           -0.1847    -2.6600    -0.0100 H       
  32 H32            0.6280    -4.9816    -0.0300 H       
  33 H33            3.0441    -5.4436    -0.0540 H       
  34 H34            4.6605    -3.5891    -0.0541 H       
@<TRIPOS>BOND
   1    1    2 1
   2    1    3 2
   3    2    5 1
   4    2   20 1
   5    3    4 1
   6    3    7 1
   7    4    5 2
   8    4   21 1
   9    5    6 1
  10    6   16 ar
  11    6   13 ar
  12    7    8 ar
  13    7   12 ar
  14    8    9 ar
  15    9   10 ar
  16    9   22 1
  17   10   11 ar
  18   10   15 1
  19   11   12 ar
  20   11   14 1
  21   12   23 1
  22   13   19 ar
  23   13   24 1
  24   14   25 1
  25   14   26 1
  26   14   27 1
  27   15   28 1
  28   15   29 1
  29   15   30 1
  30   16   17 ar
  31   16   31 1
  32   17   18 ar
  33   17   32 1
  34   18   19 ar
  35   18   33 1
  36   19   34 1

#	End of record

