#	Name: ASD02770092
#	Creating user name:	WinNT
#	Creation time:	15. 06. 2019 20:26

#	Modifying user name:	WinNT
#	Modification time:	15. 06. 2019 20:26

#	Program:	/corina/corina34_cracker 3.40 0067  02.08.2006

@<TRIPOS>MOLECULE
ASD02770092
  48   51    0    0    0
SMALL
NO_CHARGES


@<TRIPOS>ATOM
   1 C1            -0.2971     1.1102    -0.2234 C.2     
   2 N2            -0.1460    -0.2105    -0.1733 N.2     
   3 C3             1.0588    -0.7700    -0.1041 C.2     
   4 C4             2.2045     0.0544    -0.0833 C.2     
   5 C5             2.0352     1.4576    -0.1362 C.2     
   6 N6             0.7801     1.9552    -0.2066 N.am    
   7 N7             1.4873    -2.0660    -0.0432 N.pl3   
   8 C8             3.3265    -0.7911    -0.0082 C.2     
   9 C9             2.8733    -2.0766     0.0154 C.2     
  10 C10           -1.5979     1.6467    -0.3014 C.2     
  11 C11           -1.7651     2.9969    -0.3532 C.2     
  12 C12           -0.6410     3.8363    -0.3284 C.2     
  13 C13            0.5997     3.3068    -0.2601 C.2     
  14 C14            3.7133    -3.2745     0.0904 C.2     
  15 O15            3.1994    -4.3721     0.2042 O.2     
  16 N16            5.0551    -3.1613     0.0333 N.am    
  17 O17            2.9999     2.2019    -0.1204 O.2     
  18 C18            5.8986    -4.3444     0.2200 C.3     
  19 C19            7.3710    -3.9438     0.1084 C.3     
  20 C20            8.2519    -5.1794     0.3033 C.3     
  21 O21            9.6271    -4.8052     0.1990 O.3     
  22 C22            0.6246    -3.2501    -0.0397 C.3     
  23 C23            0.2850    -3.6282    -1.4584 C.ar    
  24 C24            1.0337    -4.5859    -2.1166 C.ar    
  25 C25            0.7221    -4.9328    -3.4179 C.ar    
  26 C26           -0.3384    -4.3223    -4.0609 C.ar    
  27 C27           -1.0877    -3.3653    -3.4024 C.ar    
  28 C28           -0.7788    -3.0215    -2.0996 C.ar    
  29 H29            4.3597    -0.4784     0.0249 H       
  30 H30           -2.4562     0.9915    -0.3202 H       
  31 H31           -2.7571     3.4195    -0.4135 H       
  32 H32           -0.7679     4.9080    -0.3696 H       
  33 H33            1.4590     3.9609    -0.2462 H       
  34 H34            5.4623    -2.2964    -0.1313 H       
  35 H35            5.7120    -4.7719     1.2051 H       
  36 H36            5.6638    -5.0827    -0.5468 H       
  37 H37            7.5575    -3.5163    -0.8768 H       
  38 H38            7.6058    -3.2055     0.8752 H       
  39 H39            8.0654    -5.6069     1.2885 H       
  40 H40            8.0171    -5.9177    -0.4635 H       
  41 H41           10.2446    -5.5408     0.3125 H       
  42 H42            1.1453    -4.0776     0.4422 H       
  43 H43           -0.2923    -3.0300     0.5071 H       
  44 H44            1.8623    -5.0628    -1.6142 H       
  45 H45            1.3075    -5.6804    -3.9324 H       
  46 H46           -0.5814    -4.5928    -5.0779 H       
  47 H47           -1.9161    -2.8881    -3.9049 H       
  48 H48           -1.3665    -2.2765    -1.5839 H       
@<TRIPOS>BOND
   1    1    2 2
   2    1    6 1
   3    1   10 1
   4    2    3 1
   5    3    4 2
   6    3    7 1
   7    4    5 1
   8    4    8 1
   9    5    6 am
  10    5   17 2
  11    6   13 1
  12    7    9 1
  13    7   22 1
  14    8    9 2
  15    8   29 1
  16    9   14 1
  17   10   11 2
  18   10   30 1
  19   11   12 1
  20   11   31 1
  21   12   13 2
  22   12   32 1
  23   13   33 1
  24   14   15 2
  25   14   16 am
  26   16   18 1
  27   16   34 1
  28   18   19 1
  29   18   35 1
  30   18   36 1
  31   19   20 1
  32   19   37 1
  33   19   38 1
  34   20   21 1
  35   20   39 1
  36   20   40 1
  37   21   41 1
  38   22   23 1
  39   22   42 1
  40   22   43 1
  41   23   24 ar
  42   23   28 ar
  43   24   25 ar
  44   24   44 1
  45   25   26 ar
  46   25   45 1
  47   26   27 ar
  48   26   46 1
  49   27   28 ar
  50   27   47 1
  51   28   48 1

#	End of record

