#	Name: ASD02448007
#	Creating user name:	WinNT
#	Creation time:	15. 06. 2019 20:21

#	Modifying user name:	WinNT
#	Modification time:	15. 06. 2019 20:21

#	Program:	/corina/corina34_cracker 3.40 0067  02.08.2006

@<TRIPOS>MOLECULE
ASD02448007
  77   83    0    0    0
SMALL
NO_CHARGES


@<TRIPOS>ATOM
   1 C1             3.3320    -7.4078    -1.1022 C.ar    
   2 C2             2.8132    -6.2980    -0.4660 C.ar    
   3 C3             2.2067    -5.2929    -1.2073 C.ar    
   4 C4             2.1213    -5.4037    -2.5885 C.ar    
   5 C5             2.6399    -6.5132    -3.2255 C.ar    
   6 C6             3.2473    -7.5188    -2.4843 C.ar    
   7 N7             3.7730    -8.6424    -3.1291 N.am    
   8 C8             4.8458    -9.5308    -2.6633 C.3     
   9 C9             5.1137   -10.6225    -3.6484 C.2     
  10 N10            4.3451   -10.5893    -4.7462 N.am    
  11 S11            3.3205    -9.2855    -4.6005 S.o2    
  12 O12            5.9607   -11.4718    -3.4689 O.2     
  13 O13            2.0044    -9.8009    -4.4541 O.2     
  14 O14            3.6970    -8.3432    -5.5952 O.2     
  15 N15            1.6793    -4.1647    -0.5600 N.pl3   
  16 C16            0.7477    -4.1660     0.4431 C.2     
  17 C17            2.0029    -2.8688    -0.8086 C.2     
  18 N18            1.3118    -2.1014    -0.0125 N.2     
  19 C19            0.5272    -2.8665     0.7731 C.2     
  20 C20           -0.4104    -2.3765     1.8132 C.ar    
  21 C21           -0.5392    -1.0080     2.0506 C.ar    
  22 C22           -1.1696    -3.2812     2.5522 C.ar    
  23 C23           -2.0405    -2.8204     3.5188 C.ar    
  24 C24           -2.1609    -1.4619     3.7550 C.ar    
  25 C25           -1.4134    -0.5576     3.0200 C.ar    
  26 Cl26          -3.2587    -0.8895     4.9719 Cl      
  27 Cl27           0.3981     0.1266     1.1298 Cl      
  28 C28            2.9983    -2.3956    -1.8363 C.3     
  29 C29            4.3370    -2.1821    -1.1780 C.ar    
  30 C30            5.2091    -3.2447    -1.0276 C.ar    
  31 C31            4.6928    -0.9229    -0.7307 C.ar    
  32 C32            5.9188    -0.7238    -0.1269 C.ar    
  33 C33            6.7949    -1.7902     0.0308 C.ar    
  34 C34            6.4366    -3.0526    -0.4247 C.ar    
  35 N35            8.0357    -1.5923     0.6410 N.3     
  36 C36            8.7971    -2.8464     0.7040 C.3     
  37 C37            7.8775    -0.9996     1.9751 C.3     
  38 C38            9.2546    -0.6635     2.5520 C.3     
  39 C39           10.0927    -1.9420     2.6372 C.3     
  40 C40           10.2016    -2.5654     1.2429 C.3     
  41 C41           11.4704    -1.6079     3.1484 C.ar    
  42 C42           11.9308    -2.1804     4.3195 C.ar    
  43 C43           12.2760    -0.7333     2.4434 C.ar    
  44 C44           13.5397    -0.4269     2.9124 C.ar    
  45 C45           13.9977    -0.9946     4.0866 C.ar    
  46 C46           13.1945    -1.8738     4.7884 C.ar    
  47 H47            3.8078    -8.1875    -0.5260 H       
  48 H48            2.8788    -6.2117     0.6085 H       
  49 H49            1.6488    -4.6220    -3.1647 H       
  50 H50            2.5732    -6.5995    -4.3000 H       
  51 H51            5.7555    -8.9476    -2.5205 H       
  52 H52            4.5546    -9.9732    -1.7106 H       
  53 H53            4.3779   -11.2130    -5.4884 H       
  54 H54            0.2789    -5.0321     0.8863 H       
  55 H55           -1.0770    -4.3415     2.3688 H       
  56 H56           -2.6295    -3.5213     4.0917 H       
  57 H57           -1.5109     0.5014     3.2081 H       
  58 H58            3.0949    -3.1459    -2.6211 H       
  59 H59            2.6535    -1.4574    -2.2711 H       
  60 H60            4.9297    -4.2261    -1.3817 H       
  61 H61            4.0113    -0.0942    -0.8540 H       
  62 H62            6.1963     0.2600     0.2218 H       
  63 H63            7.1153    -3.8839    -0.3033 H       
  64 H64            8.2879    -3.5476     1.3652 H       
  65 H65            8.8707    -3.2771    -0.2946 H       
  66 H66            7.2832    -0.0889     1.8998 H       
  67 H67            7.3726    -1.7094     2.6304 H       
  68 H68            9.7544     0.0569     1.9045 H       
  69 H69            9.1376    -0.2379     3.5487 H       
  70 H70            9.6128    -2.6477     3.3152 H       
  71 H71           10.7613    -3.4987     1.3042 H       
  72 H72           10.7164    -1.8750     0.5747 H       
  73 H73           11.3029    -2.8668     4.8681 H       
  74 H74           11.9182    -0.2898     1.5260 H       
  75 H75           14.1694     0.2559     2.3612 H       
  76 H76           14.9852    -0.7554     4.4528 H       
  77 H77           13.5523    -2.3174     5.7058 H       
@<TRIPOS>BOND
   1    1    2 ar
   2    1    6 ar
   3    1   47 1
   4    2    3 ar
   5    2   48 1
   6    3    4 ar
   7    3   15 1
   8    4    5 ar
   9    4   49 1
  10    5    6 ar
  11    5   50 1
  12    6    7 1
  13    7    8 1
  14    7   11 am
  15    8    9 1
  16    8   51 1
  17    8   52 1
  18    9   10 am
  19    9   12 2
  20   10   11 am
  21   10   53 1
  22   11   13 2
  23   11   14 2
  24   15   16 1
  25   15   17 1
  26   16   19 2
  27   16   54 1
  28   17   18 2
  29   17   28 1
  30   18   19 1
  31   19   20 1
  32   20   21 ar
  33   20   22 ar
  34   21   27 1
  35   21   25 ar
  36   22   23 ar
  37   22   55 1
  38   23   24 ar
  39   23   56 1
  40   24   25 ar
  41   24   26 1
  42   25   57 1
  43   28   29 1
  44   28   58 1
  45   28   59 1
  46   29   30 ar
  47   29   31 ar
  48   30   34 ar
  49   30   60 1
  50   31   32 ar
  51   31   61 1
  52   32   33 ar
  53   32   62 1
  54   33   34 ar
  55   33   35 1
  56   34   63 1
  57   35   36 1
  58   35   37 1
  59   36   40 1
  60   36   64 1
  61   36   65 1
  62   37   38 1
  63   37   66 1
  64   37   67 1
  65   38   39 1
  66   38   68 1
  67   38   69 1
  68   39   40 1
  69   39   41 1
  70   39   70 1
  71   40   71 1
  72   40   72 1
  73   41   42 ar
  74   41   43 ar
  75   42   46 ar
  76   42   73 1
  77   43   44 ar
  78   43   74 1
  79   44   45 ar
  80   44   75 1
  81   45   46 ar
  82   45   76 1
  83   46   77 1

#	End of record

