#	Name: ASD01411119
#	Creating user name:	WinNT
#	Creation time:	15. 06. 2019 19:19

#	Modifying user name:	WinNT
#	Modification time:	15. 06. 2019 19:19

#	Program:	/corina/corina34_cracker 3.40 0067  02.08.2006

@<TRIPOS>MOLECULE
ASD01411119
  57   59    0    0    0
SMALL
NO_CHARGES


@<TRIPOS>ATOM
   1 C1            -0.1804     1.6238     0.3406 C.3     
   2 C2            -0.2234     0.0938     0.2169 C.3     
   3 O3             1.1743     2.0717     0.2422 O.3     
   4 C4             0.8311    -0.4737     1.1336 C.2     
   5 C5             1.9878     1.7476     1.3766 C.3     
   6 C6             1.8336     0.2720     1.6612 C.2     
   7 C7             1.0012    -1.8193     1.6179 C.ar    
   8 C8             1.5281     2.5582     2.5901 C.3     
   9 N9             2.6268    -0.5124     2.4477 N.pl3   
  10 C10            0.2766    -3.0133     1.4117 C.ar    
  11 C11            2.1525    -1.7947     2.4475 C.ar    
  12 C12            0.7543    -4.1555     2.0651 C.ar    
  13 C13            2.5983    -2.9514     3.0814 C.ar    
  14 C14            1.8754    -4.1157     2.8689 C.ar    
  15 C15            2.3817     2.1871     3.8044 C.3     
  16 C16            3.4526     2.0646     1.0689 C.3     
  17 N17            3.6135     3.5106     0.8968 N.am    
  18 C18            4.7996     4.0929     1.1620 C.2     
  19 O19            5.7356     3.4187     1.5439 O.2     
  20 O20            4.9475     5.4218     1.0037 O.3     
  21 C21            6.2526     5.9807     1.3080 C.3     
  22 C22            6.4969     7.2116     0.4328 C.3     
  23 C23            6.3030     6.3853     2.7827 C.3     
  24 C24            3.8192    -2.9386     3.9647 C.3     
  25 C25            1.9904     3.0693     4.9916 C.3     
  26 C26            3.8640     1.3591    -0.1976 C.2     
  27 O27            4.2518     1.9985    -1.1466 O.2     
  28 O28            3.7996     0.0204    -0.2713 O.3     
  29 C29           -0.8868    -3.0538     0.5778 C.1     
  30 N30           -1.8098    -3.0860    -0.0837 N.1     
  31 H31           -0.7698     2.0699    -0.4605 H       
  32 H32           -0.5927     1.9221     1.3046 H       
  33 H33           -1.2062    -0.2729     0.5134 H       
  34 H34           -0.0145    -0.1991    -0.8120 H       
  35 H35            1.6387     3.6219     2.3795 H       
  36 H36            0.4817     2.3362     2.8000 H       
  37 H37            3.4090    -0.2065     2.9330 H       
  38 H38            0.2317    -5.0920     1.9372 H       
  39 H39            2.2021    -5.0254     3.3506 H       
  40 H40            2.2156     1.1404     4.0591 H       
  41 H41            3.4348     2.3410     3.5689 H       
  42 H42            4.0789     1.7251     1.8939 H       
  43 H43            2.8663     4.0488     0.5919 H       
  44 H44            7.0225     5.2350     1.1094 H       
  45 H45            5.7271     7.9573     0.6315 H       
  46 H46            7.4767     7.6312     0.6612 H       
  47 H47            6.4611     6.9234    -0.6178 H       
  48 H48            6.1289     5.5083     3.4062 H       
  49 H49            7.2827     6.8048     3.0111 H       
  50 H50            5.5331     7.1309     2.9814 H       
  51 H51            3.5233    -2.7177     4.9903 H       
  52 H52            4.3040    -3.9142     3.9286 H       
  53 H53            4.5133    -2.1748     3.6142 H       
  54 H54            2.5986     2.8050     5.8567 H       
  55 H55            2.1565     4.1160     4.7368 H       
  56 H56            0.9373     2.9154     5.2271 H       
  57 H57            4.0740    -0.3871    -1.1042 H       
@<TRIPOS>BOND
   1    1    2 1
   2    1    3 1
   3    1   31 1
   4    1   32 1
   5    2    4 1
   6    2   33 1
   7    2   34 1
   8    3    5 1
   9    4    6 2
  10    4    7 1
  11    5    8 1
  12    5   16 1
  13    5    6 1
  14    6    9 1
  15    7   10 ar
  16    7   11 ar
  17    8   15 1
  18    8   35 1
  19    8   36 1
  20    9   11 1
  21    9   37 1
  22   10   12 ar
  23   10   29 1
  24   11   13 ar
  25   12   14 ar
  26   12   38 1
  27   13   14 ar
  28   13   24 1
  29   14   39 1
  30   15   25 1
  31   15   40 1
  32   15   41 1
  33   16   17 1
  34   16   26 1
  35   16   42 1
  36   17   18 am
  37   17   43 1
  38   18   19 2
  39   18   20 1
  40   20   21 1
  41   21   22 1
  42   21   23 1
  43   21   44 1
  44   22   45 1
  45   22   46 1
  46   22   47 1
  47   23   48 1
  48   23   49 1
  49   23   50 1
  50   24   51 1
  51   24   52 1
  52   24   53 1
  53   25   54 1
  54   25   55 1
  55   25   56 1
  56   26   27 2
  57   26   28 1
  58   28   57 1
  59   29   30 3

#	End of record

