#	Name: ASD01883949
#	Creating user name:	WinNT
#	Creation time:	15. 06. 2019 19:47

#	Modifying user name:	WinNT
#	Modification time:	15. 06. 2019 19:47

#	Program:	/corina/corina34_cracker 3.40 0067  02.08.2006

@<TRIPOS>MOLECULE
ASD01883949
  58   62    0    0    0
SMALL
NO_CHARGES


@<TRIPOS>ATOM
   1 F1             3.0588     1.6855    -3.1427 F       
   2 C2             2.6994     2.9492    -2.8278 C.ar    
   3 C3             1.3752     3.2441    -2.5515 C.ar    
   4 C4             1.0072     4.5369    -2.2293 C.ar    
   5 C5             1.9603     5.5363    -2.1821 C.ar    
   6 C6             1.5576     6.9452    -1.8301 C.3     
   7 H7             2.4374     7.5886    -1.8432 H       
   8 C8             0.5381     7.4544    -2.8511 C.3     
   9 C9             0.1293     8.8848    -2.4938 C.3     
  10 C10           -0.4950     8.9030    -1.0971 C.3     
  11 H11           -1.3748     8.2596    -1.0839 H       
  12 C12            0.5244     8.3938    -0.0761 C.3     
  13 C13            0.9333     6.9634    -0.4334 C.3     
  14 N14           -0.8876    10.2763    -0.7540 N.3     
  15 C15           -1.9717    10.2819     0.2373 C.3     
  16 C16           -2.3466    11.7046     0.5636 C.2     
  17 C17           -1.6316    12.4157     1.5426 C.2     
  18 C18           -1.9632    13.6899     1.8387 C.2     
  19 N19           -2.9953    14.3046     1.1932 N.pl3   
  20 C20           -3.5483    15.5452     1.2741 C.2     
  21 C21           -3.1098    16.6582     2.1906 C.3     
  22 C22           -2.0482    17.5079     1.4893 C.3     
  23 C23           -2.3919    18.9704     1.1997 C.3     
  24 C24           -1.3876    18.6242     2.3007 C.3     
  25 N25           -4.5298    15.5955     0.4108 N.2     
  26 N26           -4.6359    14.4735    -0.2102 N.2     
  27 C27           -3.7125    13.6354     0.2319 C.2     
  28 C28           -3.3748    12.3072    -0.0920 C.2     
  29 C29           -4.1472    11.5603    -1.1487 C.3     
  30 F30           -5.0490    10.6842    -0.5352 F       
  31 F31           -4.8502    12.4716    -1.9440 F       
  32 F32           -3.2595    10.8318    -1.9477 F       
  33 C33            3.2856     5.2436    -2.4577 C.ar    
  34 F34            4.2173     6.2209    -2.4115 F       
  35 C35            3.6560     3.9486    -2.7757 C.ar    
  36 H36            0.6294     2.4638    -2.5881 H       
  37 H37           -0.0262     4.7662    -2.0146 H       
  38 H38            0.9829     7.4415    -3.8461 H       
  39 H39           -0.3416     6.8110    -2.8380 H       
  40 H40            1.0091     9.5282    -2.5069 H       
  41 H41           -0.5970     9.2475    -3.2211 H       
  42 H42            1.4042     9.0372    -0.0892 H       
  43 H43            0.0797     8.4067     0.9190 H       
  44 H44            0.0535     6.3200    -0.4203 H       
  45 H45            1.6596     6.6007     0.2939 H       
  46 H46           -0.0950    10.8077    -0.4260 H       
  47 H47           -2.8389     9.7619    -0.1698 H       
  48 H48           -1.6378     9.7771     1.1438 H       
  49 H49           -0.8124    11.9396     2.0610 H       
  50 H50           -1.4071    14.2268     2.5930 H       
  51 H51           -3.9678    17.2823     2.4406 H       
  52 H52           -2.6911    16.2338     3.1030 H       
  53 H53           -1.4307    16.9820     0.7611 H       
  54 H54           -2.0007    19.4069     0.2807 H       
  55 H55           -3.3744    19.3272     1.5087 H       
  56 H56           -1.7093    18.7532     3.3341 H       
  57 H57           -0.3356    18.8329     2.1061 H       
  58 H58            4.6898     3.7186    -2.9872 H       
@<TRIPOS>BOND
   1    1    2 1
   2    2   35 ar
   3    2    3 ar
   4    3    4 ar
   5    3   36 1
   6    4    5 ar
   7    4   37 1
   8    5    6 1
   9    5   33 ar
  10    6    7 1
  11    6   13 1
  12    6    8 1
  13    8    9 1
  14    8   38 1
  15    8   39 1
  16    9   10 1
  17    9   40 1
  18    9   41 1
  19   10   11 1
  20   10   12 1
  21   10   14 1
  22   12   13 1
  23   12   42 1
  24   12   43 1
  25   13   44 1
  26   13   45 1
  27   14   15 1
  28   14   46 1
  29   15   16 1
  30   15   47 1
  31   15   48 1
  32   16   28 2
  33   16   17 1
  34   17   18 2
  35   17   49 1
  36   18   19 1
  37   18   50 1
  38   19   27 1
  39   19   20 1
  40   20   21 1
  41   20   25 2
  42   21   22 1
  43   21   51 1
  44   21   52 1
  45   22   24 1
  46   22   23 1
  47   22   53 1
  48   23   24 1
  49   23   54 1
  50   23   55 1
  51   24   56 1
  52   24   57 1
  53   25   26 1
  54   26   27 2
  55   27   28 1
  56   28   29 1
  57   29   30 1
  58   29   31 1
  59   29   32 1
  60   33   34 1
  61   33   35 ar
  62   35   58 1

#	End of record

