#	Name: ASD01915228
#	Creating user name:	WinNT
#	Creation time:	15. 06. 2019 20:05

#	Modifying user name:	WinNT
#	Modification time:	15. 06. 2019 20:05

#	Program:	/corina/corina34_cracker 3.40 0067  02.08.2006

@<TRIPOS>MOLECULE
ASD01915228
  30   31    0    0    0
SMALL
NO_CHARGES


@<TRIPOS>ATOM
   1 C1            -0.0168     1.3896    -0.0202 C.ar    
   2 C2             0.0037    -0.0067    -0.0236 C.ar    
   3 C3            -1.1823    -0.7185    -0.0292 C.ar    
   4 C4            -2.3942    -0.0530    -0.0314 C.ar    
   5 C5            -2.4270     1.3439    -0.0275 C.ar    
   6 C6            -1.2351     2.0660    -0.0161 C.ar    
   7 F7            -1.1564    -2.0693    -0.0329 F       
   8 C8             1.2517     2.1488    -0.0148 C.2     
   9 N9             2.4293     1.4934    -0.0131 N.am    
  10 O10            1.2325     3.3643    -0.0118 O.2     
  11 C11            3.6268     2.2068    -0.1263 C.ar    
  12 C12            4.7658     1.7636     0.5330 C.ar    
  13 C13            5.9470     2.4706     0.4192 C.ar    
  14 C14            5.9959     3.6187    -0.3497 C.ar    
  15 C15            4.8632     4.0630    -1.0073 C.ar    
  16 C16            3.6809     3.3572    -0.9030 C.ar    
  17 C17            4.7132     0.5130     1.3721 C.3     
  18 C18           -3.6827     2.0321    -0.0298 C.1     
  19 N19           -4.6789     2.5781    -0.0316 N.1     
  20 H20            0.9474    -0.5318    -0.0222 H       
  21 H21           -3.3172    -0.6138    -0.0364 H       
  22 H22           -1.2555     3.1458    -0.0127 H       
  23 H23            2.4463     0.5268     0.0666 H       
  24 H24            6.8332     2.1265     0.9317 H       
  25 H25            6.9206     4.1699    -0.4368 H       
  26 H26            4.9045     4.9606    -1.6066 H       
  27 H27            2.7967     3.7047    -1.4167 H       
  28 H28            4.9572    -0.3504     0.7532 H       
  29 H29            5.4333     0.5913     2.1866 H       
  30 H30            3.7109     0.3934     1.7835 H       
@<TRIPOS>BOND
   1    1    2 ar
   2    1    8 1
   3    1    6 ar
   4    2    3 ar
   5    2   20 1
   6    3    4 ar
   7    3    7 1
   8    4    5 ar
   9    4   21 1
  10    5    6 ar
  11    5   18 1
  12    6   22 1
  13    8    9 am
  14    8   10 2
  15    9   11 1
  16    9   23 1
  17   11   12 ar
  18   11   16 ar
  19   12   13 ar
  20   12   17 1
  21   13   14 ar
  22   13   24 1
  23   14   15 ar
  24   14   25 1
  25   15   16 ar
  26   15   26 1
  27   16   27 1
  28   17   28 1
  29   17   29 1
  30   17   30 1
  31   18   19 3

#	End of record

