#	Name: ASD01200157
#	Creating user name:	WinNT
#	Creation time:	15. 06. 2019 19:08

#	Modifying user name:	WinNT
#	Modification time:	15. 06. 2019 19:08

#	Program:	/corina/corina34_cracker 3.40 0067  02.08.2006

@<TRIPOS>MOLECULE
ASD01200157
  58   61    0    0    0
SMALL
NO_CHARGES


@<TRIPOS>ATOM
   1 C1            -0.0195     1.3707    -0.0082 C.ar    
   2 C2             0.0019    -0.0110    -0.0156 C.ar    
   3 C3             1.2120    -0.6907    -0.0244 C.ar    
   4 C4             2.3956     0.0122    -0.0264 C.ar    
   5 C5             2.3865     1.4099    -0.0196 C.ar    
   6 C6             3.8452    -0.4044    -0.0352 C.3     
   7 N7             4.6285     0.8364    -0.0327 N.am    
   8 C8             3.7830     1.8813    -0.0237 C.2     
   9 O9             4.1218     3.0489    -0.0199 O.2     
  10 S10            4.2217    -1.3824     1.4455 S.3     
  11 C11            6.0909     0.9222    -0.0382 C.3     
  12 C12            6.5866     0.9581    -1.4609 C.ar    
  13 C13            3.6321    -3.0393     1.0010 C.3     
  14 C14            3.8781    -3.9847     2.1485 C.2     
  15 O15            4.3998    -3.5805     3.1659 O.2     
  16 N16            3.5184    -5.2794     2.0440 N.am    
  17 C17            3.8413    -6.1740     3.0568 C.ar    
  18 N18            4.5867    -5.7673     4.0745 N.ar    
  19 C19            4.9177    -6.5794     5.0565 C.ar    
  20 C20            4.4879    -7.9078     5.0531 C.ar    
  21 C21            3.6973    -8.3648     3.9875 C.ar    
  22 C22            3.3723    -7.4838     2.9910 C.ar    
  23 C23            6.7433     2.1703    -2.1061 C.ar    
  24 C24            7.1978     2.2085    -3.4116 C.ar    
  25 C25            7.4976     1.0303    -4.0754 C.ar    
  26 C26            7.3403    -0.1905    -3.4254 C.ar    
  27 C27            6.8891    -0.2215    -2.1161 C.ar    
  28 O28            7.9443     1.0661    -5.3594 O.3     
  29 C29            1.1634     2.0874    -0.0101 C.ar    
  30 C30            4.8596    -8.8173     6.1529 C.2     
  31 O31            5.6195    -8.3682     7.1709 O.3     
  32 O32            4.4807    -9.9717     6.1409 O.2     
  33 C33            8.0811     2.3541    -5.9630 C.3     
  34 O34            7.6329    -1.3500    -4.0730 O.3     
  35 C35            7.4475    -2.5650    -3.3439 C.3     
  36 F36            1.1372     3.4382    -0.0038 F       
  37 F37            1.2282    -2.0416    -0.0307 F       
  38 H38           -0.9646     1.8934    -0.0055 H       
  39 H39           -0.9260    -0.5638    -0.0140 H       
  40 H40            4.0632    -0.9833    -0.9326 H       
  41 H41            6.4036     1.8296     0.4785 H       
  42 H42            6.5078     0.0527     0.4699 H       
  43 H43            2.5643    -2.9994     0.7857 H       
  44 H44            4.1677    -3.3911     0.1192 H       
  45 H45            3.0341    -5.5865     1.2617 H       
  46 H46            5.5266    -6.2152     5.8708 H       
  47 H47            3.3495    -9.3868     3.9565 H       
  48 H48            2.7651    -7.8039     2.1571 H       
  49 H49            6.5098     3.0896    -1.5897 H       
  50 H50            7.3187     3.1570    -3.9137 H       
  51 H51            6.7662    -1.1674    -1.6095 H       
  52 H52            5.8373    -9.0013     7.8687 H       
  53 H53            7.1126     2.8541    -5.9757 H       
  54 H54            8.7904     2.9507    -5.3893 H       
  55 H55            8.4446     2.2401    -6.9842 H       
  56 H56            7.7165    -3.4121    -3.9749 H       
  57 H57            8.0813    -2.5568    -2.4571 H       
  58 H58            6.4034    -2.6527    -3.0435 H       
@<TRIPOS>BOND
   1    1    2 ar
   2    1   29 ar
   3    1   38 1
   4    2    3 ar
   5    2   39 1
   6    3    4 ar
   7    3   37 1
   8    4    5 ar
   9    4    6 1
  10    5   29 ar
  11    5    8 1
  12    6    7 1
  13    6   10 1
  14    6   40 1
  15    7    8 am
  16    7   11 1
  17    8    9 2
  18   10   13 1
  19   11   12 1
  20   11   41 1
  21   11   42 1
  22   12   23 ar
  23   12   27 ar
  24   13   14 1
  25   13   43 1
  26   13   44 1
  27   14   15 2
  28   14   16 am
  29   16   17 1
  30   16   45 1
  31   17   18 ar
  32   17   22 ar
  33   18   19 ar
  34   19   20 ar
  35   19   46 1
  36   20   21 ar
  37   20   30 1
  38   21   22 ar
  39   21   47 1
  40   22   48 1
  41   23   24 ar
  42   23   49 1
  43   24   25 ar
  44   24   50 1
  45   25   26 ar
  46   25   28 1
  47   26   27 ar
  48   26   34 1
  49   27   51 1
  50   28   33 1
  51   29   36 1
  52   30   31 1
  53   30   32 2
  54   31   52 1
  55   33   53 1
  56   33   54 1
  57   33   55 1
  58   34   35 1
  59   35   56 1
  60   35   57 1
  61   35   58 1

#	End of record

