#	Name: ASD01815577
#	Creating user name:	WinNT
#	Creation time:	15. 06. 2019 19:33

#	Modifying user name:	WinNT
#	Modification time:	15. 06. 2019 19:33

#	Program:	/corina/corina34_cracker 3.40 0067  02.08.2006

@<TRIPOS>MOLECULE
ASD01815577
  38   40    0    0    0
SMALL
NO_CHARGES


@<TRIPOS>ATOM
   1 C1            -0.0168     1.3866     0.0097 C.ar    
   2 C2             0.0021    -0.0041     0.0020 C.ar    
   3 C3            -1.1742    -0.7236     0.0098 C.ar    
   4 C4            -2.3968    -0.0585     0.0250 C.ar    
   5 C5            -2.4139     1.3470     0.0328 C.ar    
   6 C6            -1.2175     2.0644     0.0305 C.ar    
   7 N7            -3.5791    -0.7680     0.0320 N.pl3   
   8 C8            -4.7802    -0.1764     0.0462 C.2     
   9 C9            -4.9239     1.1964     0.0550 C.2     
  10 C10           -3.7163     2.0378     0.0490 C.2     
  11 O11           -3.7898     3.2542     0.0566 O.2     
  12 C12           -6.2603     1.8076     0.0706 C.2     
  13 O13           -7.2510     1.1031     0.0758 O.2     
  14 O14           -6.3877     3.1496     0.0790 O.3     
  15 C15           -3.5186    -2.2317     0.0230 C.3     
  16 C16           -3.4845    -2.7418     1.4407 C.ar    
  17 C17           -4.6659    -3.0250     2.1008 C.ar    
  18 C18           -4.6374    -3.4927     3.4004 C.ar    
  19 C19           -3.4220    -3.6781     4.0431 C.ar    
  20 C20           -2.2380    -3.3932     3.3785 C.ar    
  21 C21           -2.2717    -2.9311     2.0771 C.ar    
  22 F22            1.1452     2.0757     0.0023 F       
  23 Cl23           1.5220    -0.8426    -0.0181 Cl      
  24 O24           -3.3913    -4.1377     5.3216 O.3     
  25 C25           -2.1045    -4.3046     5.9203 C.3     
  26 F26           -1.4395    -3.0740     5.9471 F       
  27 F27           -2.2564    -4.7811     7.2269 F       
  28 F28           -1.3580    -5.2219     5.1731 F       
  29 H29           -1.1469    -1.8032     0.0038 H       
  30 H30           -1.2316     3.1443     0.0368 H       
  31 H31           -5.6662    -0.7940     0.0506 H       
  32 H32           -7.2869     3.5053     0.0892 H       
  33 H33           -4.3975    -2.6286    -0.4849 H       
  34 H34           -2.6192    -2.5549    -0.5011 H       
  35 H35           -5.6118    -2.8801     1.6002 H       
  36 H36           -5.5605    -3.7134     3.9157 H       
  37 H37           -1.2906    -3.5368     3.8767 H       
  38 H38           -1.3503    -2.7092     1.5593 H       
@<TRIPOS>BOND
   1    1    2 ar
   2    1   22 1
   3    1    6 ar
   4    2    3 ar
   5    2   23 1
   6    3    4 ar
   7    3   29 1
   8    4    5 ar
   9    4    7 1
  10    5    6 ar
  11    5   10 1
  12    6   30 1
  13    7    8 1
  14    7   15 1
  15    8    9 2
  16    8   31 1
  17    9   10 1
  18    9   12 1
  19   10   11 2
  20   12   13 2
  21   12   14 1
  22   14   32 1
  23   15   16 1
  24   15   33 1
  25   15   34 1
  26   16   17 ar
  27   16   21 ar
  28   17   18 ar
  29   17   35 1
  30   18   19 ar
  31   18   36 1
  32   19   20 ar
  33   19   24 1
  34   20   21 ar
  35   20   37 1
  36   21   38 1
  37   24   25 1
  38   25   26 1
  39   25   27 1
  40   25   28 1

#	End of record

