#	Name: ASD02030621
#	Creating user name:	WinNT
#	Creation time:	15. 06. 2019 20:15

#	Modifying user name:	WinNT
#	Modification time:	15. 06. 2019 20:15

#	Program:	/corina/corina34_cracker 3.40 0067  02.08.2006

@<TRIPOS>MOLECULE
ASD02030621
  68   71    0    0    0
SMALL
NO_CHARGES


@<TRIPOS>ATOM
   1 C1             0.1575     1.1558    -0.0906 C.ar    
   2 C2             0.0185    -0.2158    -0.0944 C.ar    
   3 C3             1.1471    -1.0202    -0.1621 C.ar    
   4 C4             2.4016    -0.4384    -0.2195 C.ar    
   5 C5             2.5397     0.9436    -0.2091 C.ar    
   6 C6             1.4165     1.7386    -0.1538 C.ar    
   7 C7             1.4931     3.2448    -0.1729 C.3     
   8 C8             3.9368     1.5050    -0.2450 C.3     
   9 C9             3.9272     2.9582    -0.7165 C.3     
  10 N10            2.8812     3.6717     0.0331 N.am    
  11 C11            0.9965     3.7627    -1.5242 C.3     
  12 O12            1.7389     3.1405    -2.5748 O.3     
  13 C13            1.4200     3.4932    -3.8488 C.ar    
  14 C14            3.1869     4.6776     0.8764 C.2     
  15 O15            4.3498     4.9628     1.0858 O.2     
  16 C16            2.1079     5.4343     1.5466 C.ar    
  17 C17            0.7703     4.2109    -6.4423 C.ar    
  18 C18            0.0932     4.7813    -5.3746 C.ar    
  19 C19            0.4172     4.4230    -4.0805 C.ar    
  20 C20            2.1013     2.9275    -4.9162 C.ar    
  21 C21            1.7773     3.2857    -6.2103 C.ar    
  22 C22            2.2861     5.9031     2.8482 C.ar    
  23 C23            0.9092     5.6869     0.8770 C.ar    
  24 C24           -0.0955     6.3932     1.5054 C.ar    
  25 C25            0.0805     6.8529     2.7977 C.ar    
  26 C26            1.2709     6.6111     3.4696 C.ar    
  27 O27            0.4514     4.5636    -7.7163 O.3     
  28 C28            1.1893     3.9365    -8.7671 C.3     
  29 C29            0.6934     4.4552   -10.1184 C.3     
  30 O30            1.0212    -2.3733    -0.1716 O.3     
  31 C31           -0.2919    -2.9040     0.0180 C.3     
  32 C32           -0.9397    -3.1611    -1.3441 C.3     
  33 C33           -0.2034    -4.2180     0.7968 C.3     
  34 O34            1.4401     7.0694     4.7379 O.3     
  35 C35            0.3519     7.7919     5.3173 C.3     
  36 H36           -0.7207     1.7827    -0.0427 H       
  37 H37           -0.9638    -0.6619    -0.0445 H       
  38 H38            3.2803    -1.0641    -0.2723 H       
  39 H39            0.8673     3.6499     0.6223 H       
  40 H40            4.3689     1.4553     0.7545 H       
  41 H41            4.5445     0.9107    -0.9273 H       
  42 H42            4.8974     3.4153    -0.5221 H       
  43 H43            3.7073     2.9982    -1.7834 H       
  44 H44           -0.0614     3.5260    -1.6375 H       
  45 H45            1.1343     4.8429    -1.5723 H       
  46 H46           -0.6909     5.5017    -5.5553 H       
  47 H47           -0.1105     4.8666    -3.2492 H       
  48 H48            2.8854     2.2071    -4.7356 H       
  49 H49            2.3045     2.8415    -7.0417 H       
  50 H50            3.2127     5.7143     3.3699 H       
  51 H51            0.7687     5.3300    -0.1326 H       
  52 H52           -1.0224     6.5881     0.9863 H       
  53 H53           -0.7094     7.4056     3.2845 H       
  54 H54            2.2486     4.1681    -8.6555 H       
  55 H55            1.0462     2.8571    -8.7175 H       
  56 H56           -0.3658     4.2236   -10.2300 H       
  57 H57            0.8365     5.5346   -10.1680 H       
  58 H58            1.2563     3.9769   -10.9199 H       
  59 H59           -0.8952    -2.1896     0.5781 H       
  60 H60           -1.9413    -3.5660    -1.1995 H       
  61 H61           -1.0027    -2.2250    -1.8990 H       
  62 H62           -0.3364    -3.8756    -1.9043 H       
  63 H63            0.2580    -4.0349     1.7671 H       
  64 H64           -1.2051    -4.6229     0.9414 H       
  65 H65            0.3998    -4.9325     0.2366 H       
  66 H66            0.1387     8.6738     4.7133 H       
  67 H67           -0.5307     7.1532     5.3521 H       
  68 H68            0.6176     8.0997     6.3286 H       
@<TRIPOS>BOND
   1    1    2 ar
   2    1    6 ar
   3    1   36 1
   4    2    3 ar
   5    2   37 1
   6    3    4 ar
   7    3   30 1
   8    4    5 ar
   9    4   38 1
  10    5    6 ar
  11    5    8 1
  12    6    7 1
  13    7   10 1
  14    7   11 1
  15    7   39 1
  16    8    9 1
  17    8   40 1
  18    8   41 1
  19    9   10 1
  20    9   42 1
  21    9   43 1
  22   10   14 am
  23   11   12 1
  24   11   44 1
  25   11   45 1
  26   12   13 1
  27   13   20 ar
  28   13   19 ar
  29   14   15 2
  30   14   16 1
  31   16   23 ar
  32   16   22 ar
  33   17   18 ar
  34   17   21 ar
  35   17   27 1
  36   18   19 ar
  37   18   46 1
  38   19   47 1
  39   20   21 ar
  40   20   48 1
  41   21   49 1
  42   22   26 ar
  43   22   50 1
  44   23   24 ar
  45   23   51 1
  46   24   25 ar
  47   24   52 1
  48   25   26 ar
  49   25   53 1
  50   26   34 1
  51   27   28 1
  52   28   29 1
  53   28   54 1
  54   28   55 1
  55   29   56 1
  56   29   57 1
  57   29   58 1
  58   30   31 1
  59   31   32 1
  60   31   33 1
  61   31   59 1
  62   32   60 1
  63   32   61 1
  64   32   62 1
  65   33   63 1
  66   33   64 1
  67   33   65 1
  68   34   35 1
  69   35   66 1
  70   35   67 1
  71   35   68 1

#	End of record

