#	Name: ASD01912024
#	Creating user name:	WinNT
#	Creation time:	15. 06. 2019 19:58

#	Modifying user name:	WinNT
#	Modification time:	15. 06. 2019 19:58

#	Program:	/corina/corina34_cracker 3.40 0067  02.08.2006

@<TRIPOS>MOLECULE
ASD01912024
  35   38    0    0    0
SMALL
NO_CHARGES


@<TRIPOS>ATOM
   1 C1            -0.0167     1.3802     0.0096 C.ar    
   2 C2             0.0021    -0.0041     0.0020 C.ar    
   3 C3            -1.1842    -0.7176     0.0100 C.ar    
   4 C4            -2.3938    -0.0512     0.0251 C.ar    
   5 C5            -2.4187     1.3432     0.0328 C.ar    
   6 C6            -1.2205     2.0569     0.0305 C.ar    
   7 C7            -3.7127     2.0634     0.0486 C.ar    
   8 N8            -4.7659     1.5772    -0.6006 N.ar    
   9 C9            -5.9241     2.2182    -0.5887 C.ar    
  10 N10           -6.0899     3.3621     0.0625 N.ar    
  11 C11           -5.0970     3.9160     0.7334 C.ar    
  12 C12           -3.8520     3.2759     0.7581 C.ar    
  13 C13           -2.7477     3.8413     1.4734 C.1     
  14 N14           -1.8717     4.2897     2.0408 N.1     
  15 N15           -6.9960     1.6781    -1.2780 N.pl3   
  16 C16           -8.2130     2.3281    -1.2801 C.2     
  17 O17           -9.3168     1.8947    -1.9140 O.3     
  18 C18          -10.3090     2.7870    -1.6918 C.ar    
  19 C19           -9.7605     3.7963    -0.8864 C.ar    
  20 N20           -8.4628     3.4529    -0.6611 N.2     
  21 C21          -11.6356     2.8632    -2.0842 C.ar    
  22 C22          -12.4118     3.9310    -1.6816 C.ar    
  23 C23          -11.8737     4.9307    -0.8855 C.ar    
  24 C24          -10.5567     4.8705    -0.4863 C.ar    
  25 Cl25          -1.1513    -2.4533     0.0003 Cl      
  26 Cl26           1.4757     2.2669     0.0001 Cl      
  27 H27            0.9457    -0.5292    -0.0105 H       
  28 H28           -3.3187    -0.6088     0.0306 H       
  29 H29           -1.2340     3.1368     0.0365 H       
  30 H30           -5.2442     4.8477     1.2593 H       
  31 H31           -6.8916     0.8426    -1.7595 H       
  32 H32          -12.0615     2.0885    -2.7046 H       
  33 H33          -13.4455     3.9886    -1.9890 H       
  34 H34          -12.4908     5.7614    -0.5766 H       
  35 H35          -10.1420     5.6511     0.1344 H       
@<TRIPOS>BOND
   1    1    2 ar
   2    1   26 1
   3    1    6 ar
   4    2    3 ar
   5    2   27 1
   6    3    4 ar
   7    3   25 1
   8    4    5 ar
   9    4   28 1
  10    5    6 ar
  11    5    7 1
  12    6   29 1
  13    7    8 ar
  14    7   12 ar
  15    8    9 ar
  16    9   10 ar
  17    9   15 1
  18   10   11 ar
  19   11   12 ar
  20   11   30 1
  21   12   13 1
  22   13   14 3
  23   15   16 1
  24   15   31 1
  25   16   17 1
  26   16   20 2
  27   17   18 1
  28   18   19 ar
  29   18   21 ar
  30   19   20 1
  31   19   24 ar
  32   21   22 ar
  33   21   32 1
  34   22   23 ar
  35   22   33 1
  36   23   24 ar
  37   23   34 1
  38   24   35 1

#	End of record

