#	Name: ASD01912042
#	Creating user name:	WinNT
#	Creation time:	15. 06. 2019 19:58

#	Modifying user name:	WinNT
#	Modification time:	15. 06. 2019 19:58

#	Program:	/corina/corina34_cracker 3.40 0067  02.08.2006

@<TRIPOS>MOLECULE
ASD01912042
  70   74    0    0    0
SMALL
NO_CHARGES


@<TRIPOS>ATOM
   1 C1            -0.0166     1.3754     0.0096 C.ar    
   2 C2             0.0021    -0.0041     0.0020 C.ar    
   3 C3             1.2193    -0.6823    -0.0133 C.ar    
   4 C4             2.4126     0.0365    -0.0209 C.ar    
   5 C5             2.3848     1.4162    -0.0132 C.ar    
   6 C6             1.1726     2.0865     0.0021 C.ar    
   7 C7             1.2443    -2.1663    -0.0210 C.2     
   8 N8             2.3183    -2.9230     0.0579 N.2     
   9 C9             0.1225    -3.0135    -0.1080 C.2     
  10 C10            0.5647    -4.2897    -0.0840 C.2     
  11 N11            1.9110    -4.2626     0.0174 N.pl3   
  12 C12           -0.2938    -5.5263    -0.1539 C.3     
  13 C13           -1.6117    -5.2744     0.5814 C.3     
  14 C14           -0.5832    -5.8642    -1.6178 C.3     
  15 C15            2.7925    -5.4313     0.0750 C.3     
  16 C16            3.2012    -5.8215    -1.3221 C.2     
  17 N17            4.0170    -6.8768    -1.5155 N.am    
  18 O18            2.7961    -5.1860    -2.2723 O.2     
  19 C19            4.4281    -7.2747    -2.8705 C.3     
  20 C20            4.5246    -7.6573    -0.3769 C.3     
  21 C21            6.0470    -7.7735    -0.5065 C.3     
  22 N22            6.3827    -8.3154    -1.8300 N.3     
  23 C23            5.9546    -7.4067    -2.8969 C.3     
  24 C24            7.7425    -8.5881    -1.9265 C.ar    
  25 N25            8.5347    -8.3485    -0.8916 N.ar    
  26 C26            8.2563    -9.1143    -3.1044 C.ar    
  27 C27            9.6173    -9.3822    -3.1861 C.ar    
  28 C28           10.4145    -9.1097    -2.0749 C.ar    
  29 C29            9.8315    -8.5924    -0.9380 C.ar    
  30 F30            1.1498     3.4372     0.0091 F       
  31 C31            3.6750     2.1949    -0.0209 C.3     
  32 C32           -2.4833    -6.5299     0.5105 C.3     
  33 C33           -2.7726    -6.8678    -0.9534 C.3     
  34 C34           -1.4548    -7.1197    -1.6888 C.3     
  35 O35           10.1576    -9.8971    -4.3199 O.3     
  36 C36           11.5656   -10.1410    -4.3149 C.3     
  37 H37           -0.9596     1.9019     0.0169 H       
  38 H38           -0.9253    -0.5575     0.0083 H       
  39 H39            3.3582    -0.4853    -0.0324 H       
  40 H40           -0.9080    -2.6987    -0.1805 H       
  41 H41            0.2302    -6.3594     0.3146 H       
  42 H42           -1.4055    -5.0337     1.6243 H       
  43 H43           -2.1357    -4.4414     0.1129 H       
  44 H44           -1.1072    -5.0312    -2.0863 H       
  45 H45            0.3557    -6.0437    -2.1417 H       
  46 H46            3.6803    -5.1883     0.6588 H       
  47 H47            2.2648    -6.2615     0.5445 H       
  48 H48            3.9733    -8.2321    -3.1248 H       
  49 H49            4.1139    -6.5152    -3.5863 H       
  50 H50            4.2741    -7.1506     0.5551 H       
  51 H51            4.0792    -8.6521    -0.3873 H       
  52 H52            6.4981    -6.7879    -0.3920 H       
  53 H53            6.4281    -8.4404     0.2669 H       
  54 H54            6.2642    -7.8076    -3.8621 H       
  55 H55            6.4104    -6.4282    -2.7458 H       
  56 H56            7.6074    -9.3127    -3.9447 H       
  57 H57           11.4762    -9.3059    -2.1033 H       
  58 H58           10.4446    -8.3793    -0.0749 H       
  59 H59            3.9767     2.3882    -1.0503 H       
  60 H60            3.5311     3.1418     0.4994 H       
  61 H61            4.4506     1.6179     0.4827 H       
  62 H62           -1.9593    -7.3630     0.9790 H       
  63 H63           -3.4221    -6.3505     1.0344 H       
  64 H64           -3.3936    -7.7622    -1.0040 H       
  65 H65           -3.2966    -6.0348    -1.4219 H       
  66 H66           -1.6609    -7.3604    -2.7317 H       
  67 H67           -0.9307    -7.9528    -1.2203 H       
  68 H68           12.0958    -9.2055    -4.1364 H       
  69 H69           11.8083   -10.8524    -3.5255 H       
  70 H70           11.8668   -10.5511    -5.2788 H       
@<TRIPOS>BOND
   1    1    2 ar
   2    1    6 ar
   3    1   37 1
   4    2    3 ar
   5    2   38 1
   6    3    4 ar
   7    3    7 1
   8    4    5 ar
   9    4   39 1
  10    5    6 ar
  11    5   31 1
  12    6   30 1
  13    7    8 2
  14    7    9 1
  15    8   11 1
  16    9   10 2
  17    9   40 1
  18   10   11 1
  19   10   12 1
  20   11   15 1
  21   12   13 1
  22   12   14 1
  23   12   41 1
  24   13   32 1
  25   13   42 1
  26   13   43 1
  27   14   34 1
  28   14   44 1
  29   14   45 1
  30   15   16 1
  31   15   46 1
  32   15   47 1
  33   16   17 am
  34   16   18 2
  35   17   19 1
  36   17   20 1
  37   19   23 1
  38   19   48 1
  39   19   49 1
  40   20   21 1
  41   20   50 1
  42   20   51 1
  43   21   22 1
  44   21   52 1
  45   21   53 1
  46   22   23 1
  47   22   24 1
  48   23   54 1
  49   23   55 1
  50   24   25 ar
  51   24   26 ar
  52   25   29 ar
  53   26   27 ar
  54   26   56 1
  55   27   28 ar
  56   27   35 1
  57   28   29 ar
  58   28   57 1
  59   29   58 1
  60   31   59 1
  61   31   60 1
  62   31   61 1
  63   32   33 1
  64   32   62 1
  65   32   63 1
  66   33   34 1
  67   33   64 1
  68   33   65 1
  69   34   66 1
  70   34   67 1
  71   35   36 1
  72   36   68 1
  73   36   69 1
  74   36   70 1

#	End of record

