#	Name: ASD01811442
#	Creating user name:	WinNT
#	Creation time:	15. 06. 2019 19:26

#	Modifying user name:	WinNT
#	Modification time:	15. 06. 2019 19:26

#	Program:	/corina/corina34_cracker 3.40 0067  02.08.2006

@<TRIPOS>MOLECULE
ASD01811442
  68   73    0    0    0
SMALL
NO_CHARGES


@<TRIPOS>ATOM
   1 C1             0.2193     1.0153     0.0455 C.ar    
   2 C2             0.3716    -0.3492     0.2075 C.ar    
   3 C3             1.6296    -0.8977     0.3495 C.ar    
   4 C4             2.7567    -0.0801     0.3300 C.ar    
   5 C5             2.5913     1.2924     0.1654 C.ar    
   6 C6             1.3341     1.8352     0.0249 C.ar    
   7 N7             4.1125    -0.3919     0.4520 N.am    
   8 C8             4.8941     0.7025     0.3786 C.2     
   9 C9             3.9748     1.8780     0.1870 C.3     
  10 C10            4.2900     2.6332    -1.1067 C.3     
  11 N11            4.5805     4.0342    -0.7220 N.3     
  12 C12            5.0453     3.9800     0.6886 C.3     
  13 C13            4.1329     2.8986     1.3251 C.3     
  14 C14            5.6096     4.6169    -1.5934 C.3     
  15 C15            5.0855     4.7125    -3.0369 C.3     
  16 C16            5.1042     6.2082    -3.4144 C.3     
  17 C17            6.1641     6.8254    -2.4685 C.3     
  18 C18            5.9285     6.0578    -1.1440 C.3     
  19 O19            6.1043     0.7344     0.4533 O.2     
  20 C20            4.6250    -1.7516     0.6385 C.3     
  21 C21            4.8914    -2.3770    -0.7064 C.ar    
  22 C22            6.0548    -2.0688    -1.3931 C.ar    
  23 C23            6.3029    -2.6408    -2.6269 C.ar    
  24 C24            5.3810    -3.5275    -3.1781 C.ar    
  25 C25            4.2135    -3.8331    -2.4827 C.ar    
  26 C26            3.9769    -3.2608    -1.2487 C.ar    
  27 F27            6.9473    -1.2081    -0.8565 F       
  28 C28            5.6418    -4.1446    -4.5031 C.2     
  29 C29            6.7731    -3.9287    -5.3137 C.2     
  30 N30            6.6391    -4.6465    -6.3974 N.2     
  31 N31            5.4271    -5.3434    -6.3222 N.pl3   
  32 C32            4.8317    -5.0286    -5.1542 C.2     
  33 C33            4.8994    -6.2606    -7.3355 C.3     
  34 C34            4.8337    -5.5451    -8.6863 C.3     
  35 C35            4.2826    -6.5030    -9.7444 C.3     
  36 H36           -0.7671     1.4400    -0.0691 H       
  37 H37           -0.4985    -0.9889     0.2234 H       
  38 H38            1.7406    -1.9645     0.4764 H       
  39 H39            1.2177     2.9014    -0.1023 H       
  40 H40            5.1598     2.1921    -1.5936 H       
  41 H41            3.4307     2.6007    -1.7765 H       
  42 H42            6.0913     3.6773     0.7372 H       
  43 H43            4.8996     4.9427     1.1785 H       
  44 H44            3.1672     3.3217     1.6017 H       
  45 H45            4.6179     2.4428     2.1883 H       
  46 H46            6.5126     4.0072    -1.5636 H       
  47 H47            5.7346     4.1499    -3.7079 H       
  48 H48            4.0675     4.3265    -3.0909 H       
  49 H49            5.4017     6.3352    -4.4553 H       
  50 H50            4.1273     6.6584    -3.2382 H       
  51 H51            7.1706     6.6448    -2.8459 H       
  52 H52            5.9867     7.8923    -2.3334 H       
  53 H53            5.0847     6.4837    -0.6011 H       
  54 H54            6.8276     6.0750    -0.5280 H       
  55 H55            5.5512    -1.7152     1.2122 H       
  56 H56            3.8876    -2.3473     1.1765 H       
  57 H57            7.2095    -2.4004    -3.1623 H       
  58 H58            3.4958    -4.5198    -2.9066 H       
  59 H59            3.0718    -3.4981    -0.7093 H       
  60 H60            7.6061    -3.2819    -5.0806 H       
  61 H61            3.8825    -5.4033    -4.8009 H       
  62 H62            5.5536    -7.1287    -7.4156 H       
  63 H63            3.8995    -6.5845    -7.0468 H       
  64 H64            4.1795    -4.6769    -8.6062 H       
  65 H65            5.8336    -5.2212    -8.9749 H       
  66 H66            4.2358    -5.9933   -10.7068 H       
  67 H67            4.9368    -7.3712    -9.8246 H       
  68 H68            3.2827    -6.8269    -9.4558 H       
@<TRIPOS>BOND
   1    1    2 ar
   2    1    6 ar
   3    1   36 1
   4    2    3 ar
   5    2   37 1
   6    3    4 ar
   7    3   38 1
   8    4    5 ar
   9    4    7 1
  10    5    6 ar
  11    5    9 1
  12    6   39 1
  13    7    8 am
  14    7   20 1
  15    8    9 1
  16    8   19 2
  17    9   10 1
  18    9   13 1
  19   10   11 1
  20   10   40 1
  21   10   41 1
  22   11   12 1
  23   11   14 1
  24   12   13 1
  25   12   42 1
  26   12   43 1
  27   13   44 1
  28   13   45 1
  29   14   15 1
  30   14   18 1
  31   14   46 1
  32   15   16 1
  33   15   47 1
  34   15   48 1
  35   16   17 1
  36   16   49 1
  37   16   50 1
  38   17   18 1
  39   17   51 1
  40   17   52 1
  41   18   53 1
  42   18   54 1
  43   20   21 1
  44   20   55 1
  45   20   56 1
  46   21   22 ar
  47   21   26 ar
  48   22   23 ar
  49   22   27 1
  50   23   24 ar
  51   23   57 1
  52   24   25 ar
  53   24   28 1
  54   25   26 ar
  55   25   58 1
  56   26   59 1
  57   28   29 1
  58   28   32 2
  59   29   30 2
  60   29   60 1
  61   30   31 1
  62   31   32 1
  63   31   33 1
  64   32   61 1
  65   33   34 1
  66   33   62 1
  67   33   63 1
  68   34   35 1
  69   34   64 1
  70   34   65 1
  71   35   66 1
  72   35   67 1
  73   35   68 1

#	End of record

