#	Name: ASD01881482
#	Creating user name:	WinNT
#	Creation time:	15. 06. 2019 19:42

#	Modifying user name:	WinNT
#	Modification time:	15. 06. 2019 19:42

#	Program:	/corina/corina34_cracker 3.40 0067  02.08.2006

@<TRIPOS>MOLECULE
ASD01881482
  64   67    0    0    0
SMALL
NO_CHARGES


@<TRIPOS>ATOM
   1 C1            -0.0167     1.3781     0.0096 C.ar    
   2 C2             0.0021    -0.0041     0.0020 C.ar    
   3 C3             1.2084    -0.6789    -0.0132 C.ar    
   4 C4             2.3960     0.0285    -0.0212 C.ar    
   5 C5             2.3773     1.4107    -0.0145 C.ar    
   6 C6             1.1710     2.0855     0.0021 C.ar    
   7 Br7            4.0182     2.3882    -0.0244 Br      
   8 O8             5.5090     3.3373    -0.0404 O.3     
   9 O9            -2.3947     0.9900    -1.2180 O.3     
  10 C10           -2.1137    -0.4111    -1.2278 C.3     
  11 C11           -1.2926    -0.7753     0.0108 C.3     
  12 C12           -3.1612     1.4369    -2.3382 C.3     
  13 C13           -0.9942    -2.2777     0.0042 C.3     
  14 C14           -2.3119    -3.0522     0.0905 C.3     
  15 O15           -3.0165    -2.6609     1.2706 O.3     
  16 C16           -3.3641    -1.2754     1.3103 C.3     
  17 C17           -2.0877    -0.4274     1.2730 C.3     
  18 C18           -3.5073     2.9177    -2.1618 C.3     
  19 O19           -2.3998     1.2663    -3.5353 O.3     
  20 C20           -3.0866     1.6605    -4.7248 C.3     
  21 C21           -3.4297     3.1503    -4.6444 C.3     
  22 C22           -4.2768     3.4044    -3.3937 C.3     
  23 O23            3.1174     3.9005    -0.0093 O.3     
  24 C24            3.8824     4.9114     0.6459 C.3     
  25 C25            5.2861     4.3704     0.9397 C.3     
  26 C26            5.3416     3.7854     2.3493 C.3     
  27 C27            6.3228     5.4811     0.7855 C.3     
  28 C28            3.9847     6.1412    -0.2610 C.3     
  29 C29            3.1958     5.3003     1.9583 C.3     
  30 H30           -0.9592     1.9054     0.0170 H       
  31 H31            1.2231    -1.7588    -0.0184 H       
  32 H32            3.3386    -0.4987    -0.0324 H       
  33 H33            1.1563     3.1654     0.0069 H       
  34 H34           -3.0497    -0.9695    -1.2203 H       
  35 H35           -1.5481    -0.6620    -2.1253 H       
  36 H36           -4.0801     0.8543    -2.4055 H       
  37 H37           -0.4759    -2.5421    -0.9175 H       
  38 H38           -0.3677    -2.5283     0.8602 H       
  39 H39           -2.9210    -2.8321    -0.7863 H       
  40 H40           -2.1033    -4.1213     0.1293 H       
  41 H41           -3.9869    -1.0320     0.4494 H       
  42 H42           -3.9134    -1.0645     2.2278 H       
  43 H43           -1.4831    -0.6403     2.1547 H       
  44 H44           -2.3530     0.6297     1.2587 H       
  45 H45           -4.1254     3.0439    -1.2729 H       
  46 H46           -2.5897     3.4958    -2.0536 H       
  47 H47           -2.4481     1.4807    -5.5898 H       
  48 H48           -4.0045     1.0809    -4.8236 H       
  49 H49           -2.5105     3.7332    -4.5864 H       
  50 H50           -3.9923     3.4429    -5.5310 H       
  51 H51           -5.2180     2.8605    -3.4741 H       
  52 H52           -4.4777     4.4716    -3.3000 H       
  53 H53            4.6209     2.9720     2.4338 H       
  54 H54            6.3439     3.4046     2.5455 H       
  55 H55            5.0996     4.5620     3.0749 H       
  56 H56            6.0980     6.2874     1.4837 H       
  57 H57            7.3154     5.0836     0.9970 H       
  58 H58            6.2948     5.8652    -0.2342 H       
  59 H59            2.9869     6.5365    -0.4511 H       
  60 H60            4.5906     6.9040     0.2282 H       
  61 H61            4.4496     5.8585    -1.2055 H       
  62 H62            3.0991     4.4193     2.5927 H       
  63 H63            3.7932     6.0538     2.4715 H       
  64 H64            2.2063     5.7046     1.7448 H       
@<TRIPOS>BOND
   1    1    2 ar
   2    1    6 ar
   3    1   30 1
   4    2    3 ar
   5    2   11 1
   6    3    4 ar
   7    3   31 1
   8    4    5 ar
   9    4   32 1
  10    5    6 ar
  11    5    7 1
  12    6   33 1
  13    7   23 1
  14    7    8 1
  15    8   25 1
  16    9   10 1
  17    9   12 1
  18   10   11 1
  19   10   34 1
  20   10   35 1
  21   11   13 1
  22   11   17 1
  23   12   18 1
  24   12   19 1
  25   12   36 1
  26   13   14 1
  27   13   37 1
  28   13   38 1
  29   14   15 1
  30   14   39 1
  31   14   40 1
  32   15   16 1
  33   16   17 1
  34   16   41 1
  35   16   42 1
  36   17   43 1
  37   17   44 1
  38   18   22 1
  39   18   45 1
  40   18   46 1
  41   19   20 1
  42   20   21 1
  43   20   47 1
  44   20   48 1
  45   21   22 1
  46   21   49 1
  47   21   50 1
  48   22   51 1
  49   22   52 1
  50   23   24 1
  51   24   25 1
  52   24   28 1
  53   24   29 1
  54   25   26 1
  55   25   27 1
  56   26   53 1
  57   26   54 1
  58   26   55 1
  59   27   56 1
  60   27   57 1
  61   27   58 1
  62   28   59 1
  63   28   60 1
  64   28   61 1
  65   29   62 1
  66   29   63 1
  67   29   64 1

#	End of record

