#	Name: ASD01870181
#	Creating user name:	WinNT
#	Creation time:	15. 06. 2019 19:38

#	Modifying user name:	WinNT
#	Modification time:	15. 06. 2019 19:38

#	Program:	/corina/corina34_cracker 3.40 0067  02.08.2006

@<TRIPOS>MOLECULE
ASD01870181
  77   81    0    0    0
SMALL
NO_CHARGES


@<TRIPOS>ATOM
   1 C1            -0.0168     1.3896     0.0097 C.ar    
   2 C2             0.0021    -0.0041     0.0020 C.ar    
   3 C3             1.1949    -0.6694    -0.0129 C.ar    
   4 C4             2.3801     0.0896    -0.0201 C.ar    
   5 C5             2.2888     1.5050    -0.0117 C.ar    
   6 N6             1.0882     2.0936     0.0029 N.ar    
   7 C7             3.6422    -0.5284    -0.0349 C.ar    
   8 C8             4.7712     0.2254    -0.0412 C.ar    
   9 C9             4.7001     1.6316    -0.0331 C.ar    
  10 C10            3.4670     2.2625    -0.0189 C.ar    
  11 C11            5.7518     2.6693    -0.0373 C.2     
  12 N12            5.1985     3.8941    -0.0257 N.am    
  13 C13            3.7387     3.7458    -0.0134 C.3     
  14 C14            5.9298     5.1635    -0.0250 C.3     
  15 C15            6.7980     5.2527    -1.2816 C.3     
  16 C16            7.5617     6.5784    -1.2809 C.3     
  17 C17            8.4525     6.6532    -0.0392 C.3     
  18 C18            7.5843     6.5640     1.2175 C.3     
  19 C19            6.8205     5.2383     1.2167 C.3     
  20 C20            3.7425    -2.0320    -0.0434 C.3     
  21 C21            3.6392    -2.5344    -1.4604 C.ar    
  22 C22            4.7789    -2.6885    -2.2352 C.ar    
  23 C23            4.6367    -3.1534    -3.5332 C.ar    
  24 C24            3.3711    -3.4463    -4.0093 C.ar    
  25 N25            2.3087    -3.2873    -3.2427 N.ar    
  26 C26            2.4082    -2.8526    -2.0016 C.ar    
  27 O27            6.9468     2.4470    -0.0494 O.2     
  28 Cl28           3.1785    -4.0289    -5.6332 Cl      
  29 C29            3.1333     4.3962    -1.2589 C.3     
  30 C30            3.3757     5.8830    -1.2174 C.2     
  31 O31            3.9274     6.4308    -2.1414 O.2     
  32 O32            5.9661     5.1828    -2.4414 O.3     
  33 Si33           6.6912     4.5107    -3.7385 Si      
  34 C34            5.5002     4.4831    -5.1708 C.3     
  35 C35            8.1930     5.5123    -4.1988 C.3     
  36 C36            7.2086     2.7688    -3.3274 C.3     
  37 C37            5.0753     5.9136    -5.5084 C.3     
  38 C38            6.1804     3.8526    -6.3876 C.3     
  39 C39            4.2668     3.6605    -4.7928 C.3     
  40 H40           -0.9672     1.9026     0.0169 H       
  41 H41           -0.9254    -0.5573     0.0082 H       
  42 H42            1.2277    -1.7489    -0.0187 H       
  43 H43            5.7361    -0.2597    -0.0523 H       
  44 H44            3.3234     4.1995     0.8865 H       
  45 H45            5.2207     5.9913    -0.0138 H       
  46 H46            7.5071     4.4249    -1.2928 H       
  47 H47            8.1803     6.6419    -2.1761 H       
  48 H48            6.8527     7.4062    -1.2697 H       
  49 H49            9.1616     5.8254    -0.0503 H       
  50 H50            8.9966     7.5977    -0.0386 H       
  51 H51            8.2189     6.6173     2.1021 H       
  52 H52            6.8752     7.3918     1.2286 H       
  53 H53            6.2020     5.1748     2.1120 H       
  54 H54            7.5296     4.4105     1.2056 H       
  55 H55            4.7000    -2.3346     0.3806 H       
  56 H56            2.9323    -2.4535     0.5516 H       
  57 H57            5.7543    -2.4514    -1.8367 H       
  58 H58            5.5027    -3.2850    -4.1649 H       
  59 H59            1.5162    -2.7353    -1.4041 H       
  60 H60            3.5991     3.9768    -2.1507 H       
  61 H61            2.0607     4.2035    -1.2845 H       
  62 H62            3.0560     6.4585    -0.3613 H       
  63 H63            8.8898     5.5284    -3.3608 H       
  64 H64            8.6776     5.0631    -5.0657 H       
  65 H65            7.8903     6.5315    -4.4393 H       
  66 H66            6.3299     2.1827    -3.0581 H       
  67 H67            7.6932     2.3196    -4.1943 H       
  68 H68            7.9054     2.7849    -2.4894 H       
  69 H69            5.9540     6.4997    -5.7777 H       
  70 H70            4.3785     5.8975    -6.3464 H       
  71 H71            4.5907     6.3628    -4.6415 H       
  72 H72            6.4831     2.8334    -6.1471 H       
  73 H73            5.4836     3.8364    -7.2257 H       
  74 H74            7.0591     4.4386    -6.6570 H       
  75 H75            3.7822     4.1097    -3.9259 H       
  76 H76            3.5700     3.6444    -5.6308 H       
  77 H77            4.5695     2.6414    -4.5523 H       
@<TRIPOS>BOND
   1    1    2 ar
   2    1    6 ar
   3    1   40 1
   4    2    3 ar
   5    2   41 1
   6    3    4 ar
   7    3   42 1
   8    4    5 ar
   9    4    7 ar
  10    5    6 ar
  11    5   10 ar
  12    7    8 ar
  13    7   20 1
  14    8    9 ar
  15    8   43 1
  16    9   10 ar
  17    9   11 1
  18   10   13 1
  19   11   12 am
  20   11   27 2
  21   12   13 1
  22   12   14 1
  23   13   29 1
  24   13   44 1
  25   14   15 1
  26   14   19 1
  27   14   45 1
  28   15   16 1
  29   15   32 1
  30   15   46 1
  31   16   17 1
  32   16   47 1
  33   16   48 1
  34   17   18 1
  35   17   49 1
  36   17   50 1
  37   18   19 1
  38   18   51 1
  39   18   52 1
  40   19   53 1
  41   19   54 1
  42   20   21 1
  43   20   55 1
  44   20   56 1
  45   21   22 ar
  46   21   26 ar
  47   22   23 ar
  48   22   57 1
  49   23   24 ar
  50   23   58 1
  51   24   25 ar
  52   24   28 1
  53   25   26 ar
  54   26   59 1
  55   29   30 1
  56   29   60 1
  57   29   61 1
  58   30   31 2
  59   30   62 1
  60   32   33 1
  61   33   34 1
  62   33   35 1
  63   33   36 1
  64   34   37 1
  65   34   38 1
  66   34   39 1
  67   35   63 1
  68   35   64 1
  69   35   65 1
  70   36   66 1
  71   36   67 1
  72   36   68 1
  73   37   69 1
  74   37   70 1
  75   37   71 1
  76   38   72 1
  77   38   73 1
  78   38   74 1
  79   39   75 1
  80   39   76 1
  81   39   77 1

#	End of record

