#	Name: ASD01912863
#	Creating user name:	WinNT
#	Creation time:	15. 06. 2019 20:00

#	Modifying user name:	WinNT
#	Modification time:	15. 06. 2019 20:00

#	Program:	/corina/corina34_cracker 3.40 0067  02.08.2006

@<TRIPOS>MOLECULE
ASD01912863
  46   49    0    0    0
SMALL
NO_CHARGES


@<TRIPOS>ATOM
   1 C1            -0.0165     1.3669     0.0096 C.2     
   2 N2             0.0021    -0.0041     0.0020 N.pl3   
   3 C3            -1.2023    -0.6921     0.0091 C.2     
   4 C4            -2.3629    -0.0498     0.0226 C.2     
   5 N5            -2.4359     1.3308     0.0302 N.am    
   6 C6            -1.3019     2.0668     0.0309 C.2     
   7 C7             1.3015     1.7837    -0.0008 C.2     
   8 C8             2.0550     0.6110    -0.0143 C.2     
   9 N9             1.2244    -0.4045    -0.0118 N.2     
  10 O10           -1.3488     3.2837     0.0376 O.2     
  11 C11           -3.6794     1.9643     0.0439 C.ar    
  12 C12            3.5595     0.5249    -0.0291 C.3     
  13 O13            4.1121     1.8427    -0.0273 O.3     
  14 C14            5.4673     1.9435    -0.0397 C.ar    
  15 C15            6.0712     3.1925    -0.0388 C.ar    
  16 C16            7.4489     3.2923    -0.0514 C.ar    
  17 C17            8.2260     2.1487    -0.0650 C.ar    
  18 C18            7.6265     0.9027    -0.0664 C.ar    
  19 C19            6.2492     0.7976    -0.0476 C.ar    
  20 N20           -3.7431     3.2843    -0.0493 N.ar    
  21 C21           -4.8356     1.2038     0.1492 C.ar    
  22 C22           -6.0675     1.8406     0.1621 C.ar    
  23 C23           -6.0996     3.2228     0.0687 C.ar    
  24 C24           -4.9017     3.9245    -0.0402 C.ar    
  25 F25           -7.2792     3.8814     0.0777 F       
  26 N26           -4.9224     5.3125    -0.1341 N.3     
  27 C27           -3.5608     5.8534    -0.2403 C.3     
  28 C28           -5.7528     5.7514    -1.2636 C.3     
  29 H29           -1.1950    -1.7720     0.0032 H       
  30 H30           -3.2785    -0.6227     0.0273 H       
  31 H31            1.6685     2.7994     0.0012 H       
  32 H32            3.9013    -0.0136     0.8548 H       
  33 H33            3.8843    -0.0041    -0.9251 H       
  34 H34            5.4647     4.0861    -0.0285 H       
  35 H35            7.9195     4.2643    -0.0511 H       
  36 H36            9.3029     2.2288    -0.0749 H       
  37 H37            8.2356     0.0109    -0.0778 H       
  38 H38            5.7814    -0.1759    -0.0487 H       
  39 H39           -4.7767     0.1278     0.2200 H       
  40 H40           -6.9819     1.2717     0.2428 H       
  41 H41           -3.0780     5.4501    -1.1305 H       
  42 H42           -3.6061     6.9401    -0.3124 H       
  43 H43           -2.9879     5.5714     0.6431 H       
  44 H44           -6.7735     5.3952    -1.1241 H       
  45 H45           -5.7517     6.8402    -1.3139 H       
  46 H46           -5.3495     5.3443    -2.1908 H       
@<TRIPOS>BOND
   1    1    2 1
   2    1    7 2
   3    1    6 1
   4    2    3 1
   5    2    9 1
   6    3    4 2
   7    3   29 1
   8    4    5 1
   9    4   30 1
  10    5    6 am
  11    5   11 1
  12    6   10 2
  13    7    8 1
  14    7   31 1
  15    8    9 2
  16    8   12 1
  17   11   20 ar
  18   11   21 ar
  19   12   13 1
  20   12   32 1
  21   12   33 1
  22   13   14 1
  23   14   15 ar
  24   14   19 ar
  25   15   16 ar
  26   15   34 1
  27   16   17 ar
  28   16   35 1
  29   17   18 ar
  30   17   36 1
  31   18   19 ar
  32   18   37 1
  33   19   38 1
  34   20   24 ar
  35   21   22 ar
  36   21   39 1
  37   22   23 ar
  38   22   40 1
  39   23   24 ar
  40   23   25 1
  41   24   26 1
  42   26   27 1
  43   26   28 1
  44   27   41 1
  45   27   42 1
  46   27   43 1
  47   28   44 1
  48   28   45 1
  49   28   46 1

#	End of record

