#	Name: ASD01510017
#	Creating user name:	WinNT
#	Creation time:	15. 06. 2019 19:21

#	Modifying user name:	WinNT
#	Modification time:	15. 06. 2019 19:21

#	Program:	/corina/corina34_cracker 3.40 0067  02.08.2006

@<TRIPOS>MOLECULE
ASD01510017
  58   60    0    0    0
SMALL
NO_CHARGES


@<TRIPOS>ATOM
   1 C1             0.6196     0.9851     0.1156 C.3     
   2 O2             0.6117    -0.4380    -0.0139 O.3     
   3 C3            -0.5903    -1.0586     0.0848 C.ar    
   4 N4            -1.6974    -0.3537     0.2927 N.ar    
   5 C5            -2.8748    -0.9518     0.3903 C.ar    
   6 N6            -3.0010    -2.2659     0.2866 N.ar    
   7 C7            -1.9396    -3.0379     0.0785 C.ar    
   8 C8            -0.6823    -2.4450    -0.0363 C.ar    
   9 S9             0.7559    -3.4246    -0.3131 S.3     
  10 C10            0.7783    -3.4443    -2.0748 C.ar    
  11 N11            1.7433    -4.1026    -2.7008 N.ar    
  12 C12            1.7915    -4.1393    -4.0292 C.ar    
  13 N13            2.8075    -4.8330    -4.6784 N.am    
  14 C14            3.8088    -5.3853    -3.9652 C.2     
  15 O15            3.8756    -5.1989    -2.7688 O.2     
  16 C16            4.8456    -6.2344    -4.6545 C.3     
  17 C17            0.8120    -3.4751    -4.7613 C.ar    
  18 C18           -0.1854    -2.7945    -4.0693 C.ar    
  19 N19           -0.1733    -2.8050    -2.7397 N.ar    
  20 N20           -1.1849    -2.1167    -4.7596 N.am    
  21 C21           -2.2027    -1.5471    -4.0844 C.2     
  22 O22           -2.2001    -1.5453    -2.8717 O.2     
  23 C23           -3.3441    -0.9124    -4.8363 C.3     
  24 O24           -2.0778    -4.3831    -0.0265 O.3     
  25 C25           -3.3999    -4.9111     0.0967 C.3     
  26 N26           -4.0064    -0.1810     0.6074 N.3     
  27 C27           -5.2092    -1.0218     0.6860 C.3     
  28 C28           -6.4219    -0.1442     1.0047 C.3     
  29 N29           -6.5676     0.8824    -0.0367 N.3     
  30 C30           -5.3649     1.7232    -0.1153 C.3     
  31 C31           -4.1522     0.8456    -0.4340 C.3     
  32 C32           -7.7668     1.6991     0.1934 C.3     
  33 H33            1.6408     1.3532     0.0172 H       
  34 H34           -0.0018     1.4244    -0.6649 H       
  35 H35            0.2258     1.2632     1.0931 H       
  36 H36            2.7952    -4.9192    -5.6445 H       
  37 H37            5.6718    -5.6038    -4.9830 H       
  38 H38            5.2175    -6.9884    -3.9607 H       
  39 H39            4.3974    -6.7252    -5.5184 H       
  40 H40            0.8257    -3.4872    -5.8411 H       
  41 H41           -1.1492    -2.0539    -5.7269 H       
  42 H42           -3.1725    -1.0110    -5.9082 H       
  43 H43           -4.2763    -1.4108    -4.5703 H       
  44 H44           -3.4091     0.1437    -4.5744 H       
  45 H45           -3.8056    -4.6504     1.0742 H       
  46 H46           -4.0335    -4.4898    -0.6838 H       
  47 H47           -3.3691    -5.9957    -0.0064 H       
  48 H48           -5.3647    -1.5242    -0.2687 H       
  49 H49           -5.0820    -1.7658     1.4723 H       
  50 H50           -7.3197    -0.7616     1.0349 H       
  51 H51           -6.2784     0.3370     1.9722 H       
  52 H52           -5.4921     2.4672    -0.9016 H       
  53 H53           -5.2094     2.2256     0.8394 H       
  54 H54           -3.2544     1.4630    -0.4642 H       
  55 H55           -4.2957     0.3644    -1.4015 H       
  56 H56           -7.6899     2.1926     1.1623 H       
  57 H57           -7.8505     2.4508    -0.5915 H       
  58 H58           -8.6497     1.0601     0.1802 H       
@<TRIPOS>BOND
   1    1    2 1
   2    1   33 1
   3    1   34 1
   4    1   35 1
   5    2    3 1
   6    3    4 ar
   7    3    8 ar
   8    4    5 ar
   9    5    6 ar
  10    5   26 1
  11    6    7 ar
  12    7    8 ar
  13    7   24 1
  14    8    9 1
  15    9   10 1
  16   10   11 ar
  17   10   19 ar
  18   11   12 ar
  19   12   13 1
  20   12   17 ar
  21   13   14 am
  22   13   36 1
  23   14   15 2
  24   14   16 1
  25   16   37 1
  26   16   38 1
  27   16   39 1
  28   17   18 ar
  29   17   40 1
  30   18   19 ar
  31   18   20 1
  32   20   21 am
  33   20   41 1
  34   21   22 2
  35   21   23 1
  36   23   42 1
  37   23   43 1
  38   23   44 1
  39   24   25 1
  40   25   45 1
  41   25   46 1
  42   25   47 1
  43   26   27 1
  44   26   31 1
  45   27   28 1
  46   27   48 1
  47   27   49 1
  48   28   29 1
  49   28   50 1
  50   28   51 1
  51   29   30 1
  52   29   32 1
  53   30   31 1
  54   30   52 1
  55   30   53 1
  56   31   54 1
  57   31   55 1
  58   32   56 1
  59   32   57 1
  60   32   58 1

#	End of record

