#	Name: ASD03330548
#	Creating user name:	WinNT
#	Creation time:	15. 06. 2019 20:37

#	Modifying user name:	WinNT
#	Modification time:	15. 06. 2019 20:37

#	Program:	/corina/corina34_cracker 3.40 0067  02.08.2006

@<TRIPOS>MOLECULE
ASD03330548
  64   66    0    0    0
SMALL
NO_CHARGES


@<TRIPOS>ATOM
   1 C1             0.1612     1.2188     0.7158 C.2     
   2 N2             0.2496    -0.1104     0.9858 N.pl3   
   3 C3             1.4346     1.6984     0.6368 C.2     
   4 N4             2.2792     0.6656     0.8396 N.2     
   5 C5             1.5778    -0.4290     1.0449 C.2     
   6 C6             2.1286    -1.7660     1.2951 C.2     
   7 C7             1.8207     3.0966     0.3758 C.2     
   8 O8             0.9636     3.9429     0.2078 O.2     
   9 C9             3.5074     4.8272     0.0639 C.3     
  10 N10            3.1236     3.4374     0.3234 N.am    
  11 C11            3.5327     5.0760    -1.4455 C.3     
  12 C12            2.1170     4.9376    -2.0090 C.3     
  13 C13            4.0555     6.4873    -1.7211 C.3     
  14 C14            4.4508     4.0520    -2.1159 C.3     
  15 C15            4.8762     5.0861     0.6387 C.2     
  16 N16            5.3590     6.3434     0.6895 N.am    
  17 O17            5.5433     4.1630     1.0556 O.2     
  18 C18            6.7203     6.5863     1.1732 C.3     
  19 C19           -0.8861    -1.0143     1.1873 C.3     
  20 C20           -1.9130    -0.7868     0.0736 C.3     
  21 C21           -2.8737     0.3268     0.4779 C.3     
  22 N22           -2.1935     1.3426     1.2838 N.3     
  23 C23           -1.1164     1.9945     0.5242 C.3     
  24 C24           -3.1488     2.3330     1.7982 C.3     
  25 C25            3.4612    -1.9493     1.3284 C.2     
  26 C26            4.0141    -3.2913     1.5795 C.ar    
  27 C27            5.3979    -3.4855     1.6148 C.ar    
  28 C28            3.1575    -4.3758     1.7893 C.ar    
  29 C29            3.6825    -5.6293     2.0238 C.ar    
  30 C30            5.0536    -5.8149     2.0516 C.ar    
  31 C31            5.9080    -4.7449     1.8504 C.ar    
  32 H32            1.4643    -2.6029     1.4525 H       
  33 H33            2.7848     5.4968     0.5304 H       
  34 H34            3.8073     2.7624     0.4574 H       
  35 H35            1.4629     5.6671    -1.5315 H       
  36 H36            2.1350     5.1148    -3.0844 H       
  37 H37            1.7445     3.9322    -1.8127 H       
  38 H38            5.0164     6.6222    -1.2245 H       
  39 H39            4.1791     6.6256    -2.7952 H       
  40 H40            3.3436     7.2194    -1.3400 H       
  41 H41            4.0783     3.0466    -1.9196 H       
  42 H42            4.4688     4.2293    -3.1912 H       
  43 H43            5.4594     4.1507    -1.7144 H       
  44 H44            4.8051     7.0874     0.4058 H       
  45 H45            6.8110     6.2278     2.1985 H       
  46 H46            7.4312     6.0567     0.5389 H       
  47 H47            6.9317     7.6551     1.1420 H       
  48 H48           -0.5393    -2.0473     1.1576 H       
  49 H49           -1.3463    -0.8112     2.1543 H       
  50 H50           -1.3963    -0.5045    -0.8437 H       
  51 H51           -2.4740    -1.7059    -0.0955 H       
  52 H52           -3.2777     0.7943    -0.4202 H       
  53 H53           -3.6925    -0.0999     1.0571 H       
  54 H54           -0.9813     3.0141     0.8851 H       
  55 H55           -1.3763     2.0128    -0.5342 H       
  56 H56           -3.8911     1.8329     2.4202 H       
  57 H57           -2.6172     3.0757     2.3931 H       
  58 H58           -3.6468     2.8254     0.9629 H       
  59 H59            4.1255    -1.1124     1.1710 H       
  60 H60            6.0659    -2.6516     1.4576 H       
  61 H61            2.0873    -4.2324     1.7683 H       
  62 H62            3.0220    -6.4681     2.1865 H       
  63 H63            5.4590    -6.7988     2.2360 H       
  64 H64            6.9769    -4.8975     1.8732 H       
@<TRIPOS>BOND
   1    1    2 1
   2    1    3 2
   3    1   23 1
   4    2   19 1
   5    2    5 1
   6    3    4 1
   7    3    7 1
   8    4    5 2
   9    5    6 1
  10    6   25 2
  11    6   32 1
  12    7    8 2
  13    7   10 am
  14    9   10 1
  15    9   11 1
  16    9   15 1
  17    9   33 1
  18   10   34 1
  19   11   12 1
  20   11   13 1
  21   11   14 1
  22   12   35 1
  23   12   36 1
  24   12   37 1
  25   13   38 1
  26   13   39 1
  27   13   40 1
  28   14   41 1
  29   14   42 1
  30   14   43 1
  31   15   16 am
  32   15   17 2
  33   16   18 1
  34   16   44 1
  35   18   45 1
  36   18   46 1
  37   18   47 1
  38   19   20 1
  39   19   48 1
  40   19   49 1
  41   20   21 1
  42   20   50 1
  43   20   51 1
  44   21   22 1
  45   21   52 1
  46   21   53 1
  47   22   23 1
  48   22   24 1
  49   23   54 1
  50   23   55 1
  51   24   56 1
  52   24   57 1
  53   24   58 1
  54   25   26 1
  55   25   59 1
  56   26   27 ar
  57   26   28 ar
  58   27   31 ar
  59   27   60 1
  60   28   29 ar
  61   28   61 1
  62   29   30 ar
  63   29   62 1
  64   30   31 ar
  65   30   63 1
  66   31   64 1

#	End of record

