#	Name: ASD09200054
#	Creating user name:	WinNT
#	Creation time:	15. 06. 2019 21:21

#	Modifying user name:	WinNT
#	Modification time:	15. 06. 2019 21:21

#	Program:	/corina/corina34_cracker 3.40 0067  02.08.2006

@<TRIPOS>MOLECULE
ASD09200054
  44   46    0    0    0
SMALL
NO_CHARGES


@<TRIPOS>ATOM
   1 C1            -0.3411     1.0664    -0.6949 C.ar    
   2 C2            -0.1471    -0.0388     0.1190 C.ar    
   3 C3            -1.1667    -0.4840     0.9447 C.ar    
   4 C4            -2.3804     0.1715     0.9608 C.ar    
   5 C5            -2.5806     1.2842     0.1444 C.ar    
   6 C6            -1.5505     1.7322    -0.6811 C.ar    
   7 C7            -3.8831     1.9914     0.1582 C.ar    
   8 C8            -5.0866     1.2770    -0.0009 C.ar    
   9 N9            -6.2320     1.9510     0.0182 N.ar    
  10 C10           -6.2112     3.2676     0.1852 C.ar    
  11 N11           -5.0652     3.9203     0.3332 N.ar    
  12 N12           -3.9339     3.3069     0.3261 N.ar    
  13 N13           -7.4031     3.9706     0.2048 N.3     
  14 C14           -8.3081     3.4436     1.2341 C.3     
  15 C15           -9.5508     4.3320     1.3261 C.3     
  16 C16          -10.2546     4.3592    -0.0335 C.3     
  17 C17           -9.2756     4.8661    -1.0961 C.3     
  18 C18           -8.0410     3.9621    -1.1179 C.3     
  19 N19           -5.0767    -0.0957    -0.1736 N.pl3   
  20 F20            1.0398    -0.6842     0.1066 F       
  21 Br21           1.0550     1.6678    -1.8196 Br      
  22 C22           -1.7605     2.9343    -1.5653 C.3     
  23 C23           -9.9523     4.8397    -2.4681 C.3     
  24 N24          -10.6999     3.0036    -0.3829 N.3     
  25 H25           -1.0112    -1.3460     1.5765 H       
  26 H26           -3.1745    -0.1767     1.6046 H       
  27 H27           -8.6060     2.4287     0.9707 H       
  28 H28           -7.7968     3.4335     2.1967 H       
  29 H29          -10.2295     3.9317     2.0793 H       
  30 H30           -9.2550     5.3439     1.6030 H       
  31 H31          -11.1160     5.0253     0.0155 H       
  32 H32           -8.9755     5.8864    -0.8573 H       
  33 H33           -7.3356     4.3287    -1.8636 H       
  34 H34           -8.3401     2.9448    -1.3703 H       
  35 H35           -4.2348    -0.5644    -0.2847 H       
  36 H36           -5.9116    -0.5893    -0.1837 H       
  37 H37           -1.5500     3.8423    -1.0002 H       
  38 H38           -1.0899     2.8763    -2.4226 H       
  39 H39           -2.7935     2.9538    -1.9128 H       
  40 H40          -10.8336     5.4809    -2.4510 H       
  41 H41           -9.2550     5.2006    -3.2242 H       
  42 H42          -10.2504     3.8187    -2.7066 H       
  43 H43          -11.3433     2.6453     0.3068 H       
  44 H44          -11.1100     2.9841    -1.3046 H       
@<TRIPOS>BOND
   1    1    2 ar
   2    1   21 1
   3    1    6 ar
   4    2    3 ar
   5    2   20 1
   6    3    4 ar
   7    3   25 1
   8    4    5 ar
   9    4   26 1
  10    5    6 ar
  11    5    7 1
  12    6   22 1
  13    7    8 ar
  14    7   12 ar
  15    8    9 ar
  16    8   19 1
  17    9   10 ar
  18   10   11 ar
  19   10   13 1
  20   11   12 ar
  21   13   14 1
  22   13   18 1
  23   14   15 1
  24   14   27 1
  25   14   28 1
  26   15   16 1
  27   15   29 1
  28   15   30 1
  29   16   17 1
  30   16   24 1
  31   16   31 1
  32   17   18 1
  33   17   23 1
  34   17   32 1
  35   18   33 1
  36   18   34 1
  37   19   35 1
  38   19   36 1
  39   22   37 1
  40   22   38 1
  41   22   39 1
  42   23   40 1
  43   23   41 1
  44   23   42 1
  45   24   43 1
  46   24   44 1

#	End of record

