#	Name: ASD03081144
#	Creating user name:	WinNT
#	Creation time:	15. 06. 2019 20:27

#	Modifying user name:	WinNT
#	Modification time:	15. 06. 2019 20:27

#	Program:	/corina/corina34_cracker 3.40 0067  02.08.2006

@<TRIPOS>MOLECULE
ASD03081144
  28   31    0    0    0
SMALL
NO_CHARGES


@<TRIPOS>ATOM
   1 O1            -0.0144     1.2085     0.0087 O.3     
   2 N2             0.0021    -0.0041     0.0020 N.2     
   3 C3             1.2348    -0.4423    -0.0121 C.2     
   4 N4             2.0458     0.6361    -0.0141 N.2     
   5 C5             1.2412     1.6828    -0.0008 C.2     
   6 C6             3.0153    -2.1959    -0.0374 C.ar    
   7 C7             1.6624    -1.8638    -0.0231 C.ar    
   8 C8             0.7146    -2.8902    -0.0188 C.ar    
   9 C9             1.1645    -4.1996    -0.0290 C.ar    
  10 C10            2.5248    -4.4472    -0.0429 C.ar    
  11 N11            3.3961    -3.4567    -0.0467 N.ar    
  12 S12            2.5770     7.5188     0.0130 S.3     
  13 C13            0.8797     7.6931     0.0297 C.2     
  14 N14            0.2904     6.5583     0.0304 N.2     
  15 C15            1.0576     5.4509     0.0183 C.ar    
  16 C16            2.4233     5.7641     0.0068 C.ar    
  17 C17            3.3827     4.7516    -0.0066 C.ar    
  18 C18            3.0047     3.4421    -0.0093 C.ar    
  19 C19            1.6454     3.1037     0.0023 C.ar    
  20 C20            0.6774     4.0969     0.0156 C.ar    
  21 H21            3.7585    -1.4123    -0.0453 H       
  22 H22           -0.3422    -2.6679    -0.0075 H       
  23 H23            0.4606    -5.0187    -0.0257 H       
  24 H24            2.8794    -5.4673    -0.0506 H       
  25 H25            0.3670     8.6436     0.0392 H       
  26 H26            4.4321     5.0069    -0.0154 H       
  27 H27            3.7540     2.6644    -0.0205 H       
  28 H28           -0.3692     3.8303     0.0246 H       
@<TRIPOS>BOND
   1    1    2 1
   2    1    5 1
   3    2    3 2
   4    3    4 1
   5    3    7 1
   6    4    5 2
   7    5   19 1
   8    6    7 ar
   9    6   11 ar
  10    6   21 1
  11    7    8 ar
  12    8    9 ar
  13    8   22 1
  14    9   10 ar
  15    9   23 1
  16   10   11 ar
  17   10   24 1
  18   12   13 1
  19   12   16 1
  20   13   14 2
  21   13   25 1
  22   14   15 1
  23   15   16 ar
  24   15   20 ar
  25   16   17 ar
  26   17   18 ar
  27   17   26 1
  28   18   19 ar
  29   18   27 1
  30   19   20 ar
  31   20   28 1

#	End of record

