#	Name: ASD08170787
#	Creating user name:	WinNT
#	Creation time:	15. 06. 2019 21:17

#	Modifying user name:	WinNT
#	Modification time:	15. 06. 2019 21:17

#	Program:	/corina/corina34_cracker 3.40 0067  02.08.2006

@<TRIPOS>MOLECULE
ASD08170787
  60   61    0    0    0
SMALL
NO_CHARGES


@<TRIPOS>ATOM
   1 C1            -0.0162     1.3436     0.0094 C.2     
   2 N2             0.0021    -0.0041     0.0020 N.am    
   3 C3             1.2158    -0.6830    -0.0132 C.2     
   4 S4             1.4076    -2.3853    -0.0242 S.3     
   5 C5             3.1581    -2.1679    -0.0397 C.2     
   6 C6             4.1900    -3.2660    -0.0555 C.3     
   7 C7             5.9637    -5.1397     2.8027 C.3     
   8 C8             6.9956    -6.2378     2.7870 C.2     
   9 S9             6.6701    -7.9714     2.7808 S.3     
  10 C10            8.3571    -8.2685     2.7631 C.2     
  11 N11            2.3916    -0.1314    -0.0271 N.2     
  12 N12            3.3971    -0.8949    -0.0352 N.2     
  13 N13            8.2809    -6.0781     2.7699 N.2     
  14 N14            8.9805    -7.1290     2.7633 N.2     
  15 O15            1.0258     1.9642     0.0028 O.2     
  16 C16           -1.3314     2.0792     0.0197 C.3     
  17 N17            8.9594    -9.5220     2.7510 N.am    
  18 C18           10.3032    -9.6239     2.7376 C.2     
  19 C19           10.9559   -10.9822     2.7246 C.3     
  20 O20           10.9873    -8.6224     2.7361 O.2     
  21 C21           10.9646   -11.5575     4.1423 C.3     
  22 N22           -1.1256     3.4567    -0.4475 N.3     
  23 C23            4.5530    -3.6454     1.3816 C.3     
  24 C24            5.6007    -4.7603     1.3656 C.3     
  25 N25           12.3364   -10.8575     2.2382 N.3     
  26 C26           11.6272   -12.9365     4.1290 C.3     
  27 C27           11.7486   -10.6238     5.0667 C.3     
  28 C28           -1.8920     2.1019     1.4431 C.3     
  29 C29           -3.2273     2.8488     1.4535 C.3     
  30 C30           -2.1064     0.6672     1.9297 C.3     
  31 H31           -0.8313    -0.5005     0.0073 H       
  32 H32            3.7854    -4.1375    -0.5701 H       
  33 H33            5.0824    -2.9185    -0.5760 H       
  34 H34            5.0713    -5.4871     3.3232 H       
  35 H35            6.3683    -4.2682     3.3174 H       
  36 H36           -2.0359     1.5732    -0.6403 H       
  37 H37            8.4123   -10.3230     2.7523 H       
  38 H38           10.3973   -11.6473     2.0660 H       
  39 H39            9.9402   -11.6500     4.5031 H       
  40 H40           -2.0025     3.9517    -0.5112 H       
  41 H41           -0.4758     3.9473     0.1484 H       
  42 H42            4.9576    -2.7739     1.8963 H       
  43 H43            3.6606    -3.9929     1.9021 H       
  44 H44            6.4931    -4.4128     0.8451 H       
  45 H45            5.1961    -5.6318     0.8510 H       
  46 H46           12.3551   -10.5403     1.2806 H       
  47 H47           12.8752   -10.2454     2.8325 H       
  48 H48           12.6515   -12.8440     3.7682 H       
  49 H49           11.6334   -13.3463     5.1390 H       
  50 H50           11.0686   -13.6016     3.4704 H       
  51 H51           11.7548   -11.0337     6.0767 H       
  52 H52           12.7729   -10.5313     4.7059 H       
  53 H53           11.2765    -9.6414     5.0762 H       
  54 H54           -1.1875     2.6080     2.1031 H       
  55 H55           -3.9318     2.3427     0.7935 H       
  56 H56           -3.6267     2.8649     2.4675 H       
  57 H57           -3.0746     3.8708     1.1068 H       
  58 H58           -2.8109     0.1612     1.2697 H       
  59 H59           -1.1551     0.1351     1.9223 H       
  60 H60           -2.5058     0.6834     2.9437 H       
@<TRIPOS>BOND
   1    1    2 am
   2    1   15 2
   3    1   16 1
   4    2    3 1
   5    2   31 1
   6    3    4 1
   7    3   11 2
   8    4    5 1
   9    5    6 1
  10    5   12 2
  11    6   23 1
  12    6   32 1
  13    6   33 1
  14    7    8 1
  15    7   24 1
  16    7   34 1
  17    7   35 1
  18    8    9 1
  19    8   13 2
  20    9   10 1
  21   10   17 1
  22   10   14 2
  23   11   12 1
  24   13   14 1
  25   16   22 1
  26   16   28 1
  27   16   36 1
  28   17   18 am
  29   17   37 1
  30   18   19 1
  31   18   20 2
  32   19   21 1
  33   19   25 1
  34   19   38 1
  35   21   26 1
  36   21   27 1
  37   21   39 1
  38   22   40 1
  39   22   41 1
  40   23   24 1
  41   23   42 1
  42   23   43 1
  43   24   44 1
  44   24   45 1
  45   25   46 1
  46   25   47 1
  47   26   48 1
  48   26   49 1
  49   26   50 1
  50   27   51 1
  51   27   52 1
  52   27   53 1
  53   28   29 1
  54   28   30 1
  55   28   54 1
  56   29   55 1
  57   29   56 1
  58   29   57 1
  59   30   58 1
  60   30   59 1
  61   30   60 1

#	End of record

