#	Name: ASD01830018
#	Creating user name:	WinNT
#	Creation time:	15. 06. 2019 19:36

#	Modifying user name:	WinNT
#	Modification time:	15. 06. 2019 19:36

#	Program:	/corina/corina34_cracker 3.40 0067  02.08.2006

@<TRIPOS>MOLECULE
ASD01830018
  61   68    0    0    0
SMALL
NO_CHARGES


@<TRIPOS>ATOM
   1 N1             0.4733     1.8820    -0.4240 N.am    
   2 C2             0.5996     0.5571    -0.6406 C.2     
   3 C3            -0.5646    -0.3627    -0.4069 C.3     
   4 C4            -1.6076     0.1698     0.5738 C.3     
   5 C5            -1.3528     1.6046     0.9538 C.3     
   6 C6            -0.9036     2.4361    -0.2355 C.3     
   7 C7            -2.3641     2.2946     1.8218 C.3     
   8 C8            -1.6915     3.5632     2.3771 C.3     
   9 C9            -1.4491     4.5000     1.2124 C.3     
  10 C10           -0.7057     3.9119     0.0344 C.3     
  11 C11            1.3975     2.8710    -0.1889 C.ar    
  12 C12            0.7852     4.0929     0.1143 C.ar    
  13 C13            1.5149     5.2271     0.4149 C.ar    
  14 C14            2.8996     5.1165     0.3914 C.ar    
  15 C15            3.5170     3.9226     0.0791 C.ar    
  16 C16            2.7947     2.7793    -0.2161 C.ar    
  17 O17            1.6575     0.1063    -1.0261 O.2     
  18 N18           -2.7097     5.0568     0.7059 N.4     
  19 C19           -3.5640     2.7102     1.0131 C.2     
  20 C20           -3.7775     4.0931     0.5156 C.3     
  21 C21           -1.1957     4.7557    -1.1722 C.3     
  22 O22           -2.9063     0.0080    -0.0067 O.3     
  23 C23           -4.3790     1.7550     0.6284 C.2     
  24 C24           -4.0017     0.3177     0.8598 C.3     
  25 H25           -0.4648     1.5564     1.5841 H       
  26 H26           -2.6618     1.6401     2.6410 H       
  27 H27           -1.5687    -0.4371     1.4784 H       
  28 H28           -1.5337     2.2591    -1.1072 H       
  29 H29           -0.8609     5.3394     1.5834 H       
  30 C30           -2.3849     5.5786    -0.6517 C.3     
  31 C31           -3.1650     6.1443     1.5823 C.3     
  32 C32           -4.3956     6.7832     0.9920 C.ar    
  33 C33           -5.6506     6.3898     1.4178 C.ar    
  34 C34           -6.7794     6.9758     0.8763 C.ar    
  35 C35           -6.6532     7.9557    -0.0906 C.ar    
  36 C36           -5.3983     8.3498    -0.5157 C.ar    
  37 C37           -4.2694     7.7668     0.0289 C.ar    
  38 H38           -1.0536    -0.5504    -1.3628 H       
  39 H39           -0.1846    -1.3106    -0.0258 H       
  40 H40           -2.3468     4.0406     3.1056 H       
  41 H41           -0.7426     3.3034     2.8464 H       
  42 H42            1.0291     6.1606     0.6577 H       
  43 H43            3.5041     5.9814     0.6215 H       
  44 H44            4.5961     3.8789     0.0650 H       
  45 H45            3.2903     1.8510    -0.4592 H       
  46 H46           -4.6706     4.4866     1.0011 H       
  47 H47           -3.9847     4.0335    -0.5528 H       
  48 H48           -0.4012     5.4184    -1.5152 H       
  49 H49           -1.5171     4.1017    -1.9829 H       
  50 H50           -5.3148     2.0002     0.1482 H       
  51 H51           -4.8490    -0.3281     0.6289 H       
  52 H52           -3.7020     0.1773     1.8983 H       
  53 H53           -3.2421     5.4544    -1.3134 H       
  54 H54           -2.1107     6.6318    -0.5903 H       
  55 H55           -3.4014     5.7422     2.5674 H       
  56 H56           -2.3765     6.8911     1.6743 H       
  57 H57           -5.7491     5.6243     2.1732 H       
  58 H58           -7.7598     6.6680     1.2084 H       
  59 H59           -7.5352     8.4131    -0.5142 H       
  60 H60           -5.2998     9.1151    -1.2714 H       
  61 H61           -3.2889     8.0747    -0.3032 H       
@<TRIPOS>BOND
   1    1    2 am
   2    1   11 1
   3    1    6 1
   4    2    3 1
   5    2   17 2
   6    3    4 1
   7    3   38 1
   8    3   39 1
   9    4    5 1
  10    4   22 1
  11    4   27 1
  12    5    6 1
  13    5   25 1
  14    5    7 1
  15    6   10 1
  16    6   28 1
  17    7    8 1
  18    7   19 1
  19    7   26 1
  20    8    9 1
  21    8   40 1
  22    8   41 1
  23    9   10 1
  24    9   18 1
  25    9   29 1
  26   10   21 1
  27   10   12 1
  28   11   12 ar
  29   11   16 ar
  30   12   13 ar
  31   13   14 ar
  32   13   42 1
  33   14   15 ar
  34   14   43 1
  35   15   16 ar
  36   15   44 1
  37   16   45 1
  38   18   20 1
  39   18   30 1
  40   18   31 1
  41   19   23 2
  42   19   20 1
  43   20   46 1
  44   20   47 1
  45   21   30 1
  46   21   48 1
  47   21   49 1
  48   22   24 1
  49   23   24 1
  50   23   50 1
  51   24   51 1
  52   24   52 1
  53   30   53 1
  54   30   54 1
  55   31   32 1
  56   31   55 1
  57   31   56 1
  58   32   33 ar
  59   32   37 ar
  60   33   34 ar
  61   33   57 1
  62   34   35 ar
  63   34   58 1
  64   35   36 ar
  65   35   59 1
  66   36   37 ar
  67   36   60 1
  68   37   61 1

#	End of record

