#	Name: ASD01811617
#	Creating user name:	WinNT
#	Creation time:	15. 06. 2019 19:27

#	Modifying user name:	WinNT
#	Modification time:	15. 06. 2019 19:27

#	Program:	/corina/corina34_cracker 3.40 0067  02.08.2006

@<TRIPOS>MOLECULE
ASD01811617
  63   67    0    0    0
SMALL
NO_CHARGES


@<TRIPOS>ATOM
   1 C1            -0.1269     1.3023     0.0405 C.2     
   2 O2             0.3624     0.4907    -0.7206 O.2     
   3 N3             0.5502     1.6889     1.1398 N.am    
   4 C4             1.8428     1.0769     1.4766 C.3     
   5 C5             1.7807     0.5538     2.9151 C.3     
   6 C6             1.3612     1.6909     3.8495 C.3     
   7 C7            -0.0313     2.1891     3.4562 C.3     
   8 C8             0.0128     2.7347     2.0208 C.3     
   9 C9             1.3321     1.1885     5.2700 C.ar    
  10 C10            2.1427     1.7715     6.2261 C.ar    
  11 C11            2.1160     1.3106     7.5291 C.ar    
  12 C12            1.2783     0.2672     7.8761 C.ar    
  13 C13            0.4671    -0.3152     6.9203 C.ar    
  14 C14            0.4906     0.1485     5.6182 C.ar    
  15 C15            1.2500    -0.2358     9.2964 C.3     
  16 F16            0.2853     0.4711    10.0223 F       
  17 F17            0.9323    -1.5983     9.3023 F       
  18 F18            2.5059    -0.0473     9.8831 F       
  19 C19           -1.4625     1.8700    -0.2428 C.ar    
  20 C20           -2.5577     1.0233    -0.4301 C.ar    
  21 C21           -3.8051     1.5519    -0.6951 C.ar    
  22 C22           -3.9793     2.9196    -0.7766 C.ar    
  23 C23           -2.8932     3.7770    -0.5910 C.ar    
  24 C24           -1.6327     3.2506    -0.3180 C.ar    
  25 C25           -3.0818     5.2416    -0.6787 C.2     
  26 N26           -2.0885     6.1803    -0.6287 N.pl3   
  27 C27           -2.6883     7.3935    -0.7453 C.2     
  28 C28           -4.0213     7.1744    -0.8610 C.2     
  29 N29           -4.2349     5.8629    -0.8239 N.2     
  30 C30           -2.0706     8.7679    -0.7561 C.3     
  31 C31           -5.0214     8.2962    -1.0068 C.3     
  32 C32           -4.3227     9.6016    -0.5997 C.3     
  33 O33           -3.0519     9.6905    -1.2495 O.3     
  34 C34           -5.3446     3.4876    -1.0669 C.3     
  35 C35           -2.3769    -0.4703    -0.3430 C.3     
  36 H36            2.0441     0.2500     0.7955 H       
  37 H37            2.6332     1.8228     1.3928 H       
  38 H38            1.0529    -0.2552     2.9770 H       
  39 H39            2.7626     0.1838     3.2103 H       
  40 H40            2.0761     2.5097     3.7687 H       
  41 H41           -0.7422     1.3647     3.5130 H       
  42 H42           -0.3393     2.9831     4.1366 H       
  43 H43            0.6570     3.6130     1.9805 H       
  44 H44           -0.9936     3.0021     1.6989 H       
  45 H45            2.7971     2.5867     5.9549 H       
  46 H46            2.7498     1.7656     8.2758 H       
  47 H47           -0.1871    -1.1306     7.1914 H       
  48 H48           -0.1459    -0.3040     4.8723 H       
  49 H49           -4.6485     0.8930    -0.8398 H       
  50 H50           -0.7902     3.9098    -0.1696 H       
  51 H51           -1.1384     6.0121    -0.5292 H       
  52 H52           -1.7772     9.0480     0.2556 H       
  53 H53           -1.1976     8.7744    -1.4088 H       
  54 H54           -5.3535     8.3626    -2.0429 H       
  55 H55           -5.8763     8.1160    -0.3550 H       
  56 H56           -4.9403    10.4504    -0.8932 H       
  57 H57           -4.1794     9.6146     0.4808 H       
  58 H58           -5.8332     3.7558    -0.1301 H       
  59 H59           -5.2436     4.3753    -1.6912 H       
  60 H60           -5.9446     2.7424    -1.5892 H       
  61 H61           -2.4411    -0.7839     0.6989 H       
  62 H62           -3.1581    -0.9650    -0.9202 H       
  63 H63           -1.4009    -0.7422    -0.7448 H       
@<TRIPOS>BOND
   1    1    2 2
   2    1    3 am
   3    1   19 1
   4    3    4 1
   5    3    8 1
   6    4    5 1
   7    4   36 1
   8    4   37 1
   9    5    6 1
  10    5   38 1
  11    5   39 1
  12    6    7 1
  13    6    9 1
  14    6   40 1
  15    7    8 1
  16    7   41 1
  17    7   42 1
  18    8   43 1
  19    8   44 1
  20    9   10 ar
  21    9   14 ar
  22   10   11 ar
  23   10   45 1
  24   11   12 ar
  25   11   46 1
  26   12   13 ar
  27   12   15 1
  28   13   14 ar
  29   13   47 1
  30   14   48 1
  31   15   16 1
  32   15   17 1
  33   15   18 1
  34   19   20 ar
  35   19   24 ar
  36   20   21 ar
  37   20   35 1
  38   21   22 ar
  39   21   49 1
  40   22   23 ar
  41   22   34 1
  42   23   24 ar
  43   23   25 1
  44   24   50 1
  45   25   26 1
  46   25   29 2
  47   26   27 1
  48   26   51 1
  49   27   28 2
  50   27   30 1
  51   28   29 1
  52   28   31 1
  53   30   33 1
  54   30   52 1
  55   30   53 1
  56   31   32 1
  57   31   54 1
  58   31   55 1
  59   32   33 1
  60   32   56 1
  61   32   57 1
  62   34   58 1
  63   34   59 1
  64   34   60 1
  65   35   61 1
  66   35   62 1
  67   35   63 1

#	End of record

