#	Name: ASD05730082
#	Creating user name:	WinNT
#	Creation time:	15. 06. 2019 21:02

#	Modifying user name:	WinNT
#	Modification time:	15. 06. 2019 21:02

#	Program:	/corina/corina34_cracker 3.40 0067  02.08.2006

@<TRIPOS>MOLECULE
ASD05730082
  75   80    0    0    0
SMALL
NO_CHARGES


@<TRIPOS>ATOM
   1 C1            -0.0615     1.5018     0.0398 C.3     
   2 C2            -0.0296    -0.0048     0.0237 C.ar    
   3 C3            -0.0257    -0.6819    -1.1821 C.ar    
   4 C4             0.0035    -2.0625    -1.2004 C.ar    
   5 C5             0.0294    -2.7710    -0.0059 C.ar    
   6 C6             0.0259    -2.0878     1.2035 C.ar    
   7 C7             0.0015    -0.7070     1.2146 C.ar    
   8 N8             0.0586    -4.1686    -0.0209 N.pl3   
   9 C9             0.7639    -4.8553     0.9486 C.ar    
  10 N10            0.6842    -6.1768     0.9795 N.ar    
  11 C11            1.3478    -6.8716     1.8966 C.ar    
  12 C12            2.1380    -6.1735     2.8355 C.ar    
  13 C13            2.1894    -4.7735     2.7606 C.ar    
  14 N14            1.5013    -4.1660     1.8123 N.ar    
  15 N15            1.2707    -8.2408     1.9363 N.am    
  16 C16            1.9451    -8.9402     2.8691 C.2     
  17 C17            2.7739    -8.2472     3.8577 C.2     
  18 C18            2.8580    -6.8809     3.8250 C.2     
  19 C19            0.4459    -8.9493     0.9544 C.3     
  20 C20            1.2924    -9.2855    -0.2749 C.3     
  21 O21            1.8649   -10.1555     2.8907 O.2     
  22 C22            3.5154    -9.0175     4.8833 C.ar    
  23 C23           -1.3112     1.9792     0.7846 C.3     
  24 C24            4.8954    -9.1834     4.7721 C.ar    
  25 C25            3.5327   -10.2910     6.9188 C.ar    
  26 C26            4.9012   -10.4571     6.8000 C.ar    
  27 C27            5.5806    -9.9019     5.7306 C.ar    
  28 C28            2.8368    -9.5747     5.9669 C.ar    
  29 C29            1.1837     2.0323     0.7559 C.3     
  30 C30            1.1157     3.5597     0.8228 C.3     
  31 N31           -0.0966     3.9659     1.5451 N.3     
  32 C32           -1.3068     3.5081     0.8507 C.3     
  33 S33            5.7625    -8.4775     3.4104 S.o2    
  34 C34            0.6418   -10.1325    -1.3705 C.3     
  35 C35            0.8941    -8.6417    -1.6045 C.3     
  36 C36            5.1199    -9.3568     1.9597 C.3     
  37 O37            5.3453    -7.1192     3.3954 O.2     
  38 O38            7.1209    -8.8241     3.6422 O.2     
  39 C39            5.8909    -8.9166     0.7136 C.3     
  40 C40            5.2913   -10.8639     2.1596 C.3     
  41 H41           -0.0807     1.8767    -0.9835 H       
  42 H42           -0.0459    -0.1304    -2.1104 H       
  43 H43            0.0058    -2.5907    -2.1424 H       
  44 H44            0.0461    -2.6356     2.1340 H       
  45 H45           -0.0012    -0.1751     2.1546 H       
  46 H46           -0.4164    -4.6562    -0.7119 H       
  47 H47            2.7830    -4.2052     3.4614 H       
  48 H48            3.4642    -6.3517     4.5453 H       
  49 H49            0.0653    -9.8701     1.3964 H       
  50 H50           -0.3902    -8.3161     0.6577 H       
  51 H51            2.3554    -9.4363    -0.0868 H       
  52 H52           -2.2019     1.6404     0.2554 H       
  53 H53           -1.3106     1.5713     1.7954 H       
  54 H54            3.0076   -10.7270     7.7557 H       
  55 H55            5.4418   -11.0186     7.5476 H       
  56 H56            6.6495   -10.0314     5.6454 H       
  57 H57            1.7686    -9.4455     6.0609 H       
  58 H58            1.2236     1.6252     1.7663 H       
  59 H59            2.0755     1.7314     0.2062 H       
  60 H60            1.9939     3.9398     1.3448 H       
  61 H61            1.0897     3.9667    -0.1880 H       
  62 H62           -0.0786     3.6333     2.4976 H       
  63 H63           -1.3215     3.9154    -0.1602 H       
  64 H64           -2.1882     3.8507     1.3929 H       
  65 H65            1.2768   -10.8402    -1.9034 H       
  66 H66           -0.3893   -10.4502    -1.2154 H       
  67 H67            0.0290    -7.9786    -1.6034 H       
  68 H68            1.6952    -8.3686    -2.2913 H       
  69 H69            4.0623    -9.1250     1.8333 H       
  70 H70            6.9484    -9.1484     0.8400 H       
  71 H71            5.5047    -9.4450    -0.1581 H       
  72 H72            5.7688    -7.8429     0.5712 H       
  73 H73            4.9052   -11.3923     1.2879 H       
  74 H74            6.3488   -11.0957     2.2860 H       
  75 H75            4.7420   -11.1775     3.0473 H       
@<TRIPOS>BOND
   1    1    2 1
   2    1   29 1
   3    1   23 1
   4    1   41 1
   5    2    3 ar
   6    2    7 ar
   7    3    4 ar
   8    3   42 1
   9    4    5 ar
  10    4   43 1
  11    5    6 ar
  12    5    8 1
  13    6    7 ar
  14    6   44 1
  15    7   45 1
  16    8    9 1
  17    8   46 1
  18    9   10 ar
  19    9   14 ar
  20   10   11 ar
  21   11   12 ar
  22   11   15 1
  23   12   13 ar
  24   12   18 1
  25   13   14 ar
  26   13   47 1
  27   15   16 am
  28   15   19 1
  29   16   17 1
  30   16   21 2
  31   17   18 2
  32   17   22 1
  33   18   48 1
  34   19   20 1
  35   19   49 1
  36   19   50 1
  37   20   34 1
  38   20   35 1
  39   20   51 1
  40   22   28 ar
  41   22   24 ar
  42   23   32 1
  43   23   52 1
  44   23   53 1
  45   24   33 1
  46   24   27 ar
  47   25   26 ar
  48   25   28 ar
  49   25   54 1
  50   26   27 ar
  51   26   55 1
  52   27   56 1
  53   28   57 1
  54   29   30 1
  55   29   58 1
  56   29   59 1
  57   30   31 1
  58   30   60 1
  59   30   61 1
  60   31   32 1
  61   31   62 1
  62   32   63 1
  63   32   64 1
  64   33   36 1
  65   33   37 2
  66   33   38 2
  67   34   35 1
  68   34   65 1
  69   34   66 1
  70   35   67 1
  71   35   68 1
  72   36   39 1
  73   36   40 1
  74   36   69 1
  75   39   70 1
  76   39   71 1
  77   39   72 1
  78   40   73 1
  79   40   74 1
  80   40   75 1

#	End of record

