#	Name: ASD01410051
#	Creating user name:	WinNT
#	Creation time:	15. 06. 2019 19:16

#	Modifying user name:	WinNT
#	Modification time:	15. 06. 2019 19:16

#	Program:	/corina/corina34_cracker 3.40 0067  02.08.2006

@<TRIPOS>MOLECULE
ASD01410051
  39   40    0    0    0
SMALL
NO_CHARGES


@<TRIPOS>ATOM
   1 C1             0.4045     1.0899    -0.0902 C.ar    
   2 C2             0.1452    -0.2617    -0.0389 C.ar    
   3 C3            -1.1794    -0.7178    -0.0020 C.ar    
   4 C4            -2.2344     0.2124    -0.0178 C.ar    
   5 C5            -1.9521     1.5711    -0.0697 C.ar    
   6 C6            -0.6417     2.0056    -0.0999 C.ar    
   7 N7            -3.5511    -0.2256     0.0179 N.pl3   
   8 C8            -4.6436     0.7452     0.1192 C.3     
   9 C9            -5.9627     0.0168     0.1394 C.2     
  10 N10           -7.1145     0.7110     0.2284 N.am    
  11 C11           -8.3358     0.0494     0.1276 C.ar    
  12 C12           -8.4227    -1.1539    -0.5589 C.ar    
  13 C13           -9.6344    -1.8081    -0.6577 C.ar    
  14 C14          -10.7709    -1.2713    -0.0750 C.ar    
  15 C15          -10.7041    -0.0777     0.6106 C.ar    
  16 C16           -9.4839     0.5931     0.7246 C.ar    
  17 C17           -9.4050     1.8697     1.4568 C.2     
  18 O18          -10.4884     2.3438     2.1031 O.3     
  19 O19           -8.3632     2.4948     1.4778 O.2     
  20 O20           -5.9878    -1.1940     0.0756 O.2     
  21 C21           -1.4636    -2.1547     0.0523 C.2     
  22 F22            1.6818     1.5285    -0.1258 F       
  23 C23           -0.3373    -3.1502    -0.0561 C.3     
  24 O24           -2.6055    -2.5427     0.1844 O.2     
  25 Cl25          -0.2986     3.7062    -0.1642 Cl      
  26 H26            0.9614    -0.9690    -0.0275 H       
  27 H27           -2.7587     2.2892    -0.0820 H       
  28 H28           -3.7479    -1.1745    -0.0241 H       
  29 H29           -4.5330     1.3222     1.0373 H       
  30 H30           -4.6128     1.4175    -0.7383 H       
  31 H31           -7.0928     1.6714     0.3628 H       
  32 H32           -7.5415    -1.5786    -1.0167 H       
  33 H33           -9.6968    -2.7440    -1.1930 H       
  34 H34          -11.7141    -1.7908    -0.1588 H       
  35 H35          -11.5931     0.3366     1.0628 H       
  36 H36          -10.3882     3.1850     2.5693 H       
  37 H37            0.6077    -2.6188    -0.1688 H       
  38 H38           -0.3050    -3.7618     0.8456 H       
  39 H39           -0.5001    -3.7899    -0.9234 H       
@<TRIPOS>BOND
   1    1    2 ar
   2    1   22 1
   3    1    6 ar
   4    2    3 ar
   5    2   26 1
   6    3    4 ar
   7    3   21 1
   8    4    5 ar
   9    4    7 1
  10    5    6 ar
  11    5   27 1
  12    6   25 1
  13    7    8 1
  14    7   28 1
  15    8    9 1
  16    8   29 1
  17    8   30 1
  18    9   10 am
  19    9   20 2
  20   10   11 1
  21   10   31 1
  22   11   12 ar
  23   11   16 ar
  24   12   13 ar
  25   12   32 1
  26   13   14 ar
  27   13   33 1
  28   14   15 ar
  29   14   34 1
  30   15   16 ar
  31   15   35 1
  32   16   17 1
  33   17   18 1
  34   17   19 2
  35   18   36 1
  36   21   23 1
  37   21   24 2
  38   23   37 1
  39   23   38 1
  40   23   39 1

#	End of record

