#	Name: ASD04590345
#	Creating user name:	WinNT
#	Creation time:	15. 06. 2019 20:50

#	Modifying user name:	WinNT
#	Modification time:	15. 06. 2019 20:50

#	Program:	/corina/corina34_cracker 3.40 0067  02.08.2006

@<TRIPOS>MOLECULE
ASD04590345
  52   56    0    0    0
SMALL
NO_CHARGES


@<TRIPOS>ATOM
   1 C1            -0.0167     1.3832     0.0096 C.ar    
   2 C2             0.0021    -0.0041     0.0020 C.ar    
   3 C3             1.1969    -0.6869    -0.0131 C.ar    
   4 C4             2.4020     0.0223    -0.0208 C.ar    
   5 C5             2.3769     1.4283    -0.0131 C.ar    
   6 C6             1.1624     2.0986     0.0022 C.ar    
   7 N7             3.7040    -0.3551    -0.0354 N.2     
   8 C8             4.4709     0.7083    -0.0370 C.2     
   9 N9             3.6969     1.8375    -0.0235 N.pl3   
  10 C10            5.9482     0.6906    -0.0513 C.2     
  11 C11            6.7657    -0.4631    -0.0658 C.2     
  12 C12            8.0579    -0.0539    -0.0758 C.2     
  13 N13            8.0646     1.3050    -0.0680 N.pl3   
  14 N14            6.7360     1.7480    -0.0584 N.2     
  15 N15            6.3189    -1.7943    -0.0688 N.am    
  16 C16            7.2109    -2.8046    -0.0833 C.2     
  17 C17            6.7410    -4.2045    -0.0865 C.ar    
  18 O18            8.4026    -2.5632    -0.0937 O.2     
  19 C19            6.5294    -4.8771     1.1202 C.ar    
  20 C20            6.0894    -6.1860     1.1090 C.ar    
  21 C21            5.8586    -6.8316    -0.0925 C.ar    
  22 C22            6.0662    -6.1727    -1.2909 C.ar    
  23 C23            6.5000    -4.8617    -1.2961 C.ar    
  24 Cl24           6.8195    -4.0693     2.6292 Cl      
  25 Cl25           6.7597    -4.0368    -2.8013 Cl      
  26 C26           -1.2962    -0.7693     0.0109 C.3     
  27 N27           -1.7318    -1.0105    -1.3712 N.3     
  28 C28           -2.8604    -1.9518    -1.4111 C.3     
  29 C29           -0.6176    -1.4976    -2.1974 C.3     
  30 C30           -1.0996    -1.6784    -3.6392 C.3     
  31 O31           -2.2162    -2.5719    -3.6548 O.3     
  32 C32           -3.3198    -2.1280    -2.8609 C.3     
  33 H33           -0.9614     1.9066     0.0170 H       
  34 H34            1.2037    -1.7669    -0.0186 H       
  35 H35            1.1403     3.1784     0.0079 H       
  36 H36            4.0155     2.7537    -0.0217 H       
  37 H37            8.9277    -0.6941    -0.0875 H       
  38 H38            8.8529     1.8702    -0.0717 H       
  39 H39            5.3682    -1.9868    -0.0605 H       
  40 H40            5.9255    -6.7071     2.0407 H       
  41 H41            5.5149    -7.8554    -0.0948 H       
  42 H42            5.8845    -6.6836    -2.2250 H       
  43 H43           -1.1522    -1.7232     0.5182 H       
  44 H44           -2.0559    -0.1898     0.5354 H       
  45 H45           -2.5454    -2.9149    -1.0095 H       
  46 H46           -3.6832    -1.5591    -0.8137 H       
  47 H47            0.1967    -0.7734    -2.1739 H       
  48 H48           -0.2668    -2.4535    -1.8083 H       
  49 H49           -1.4002    -0.7130    -4.0462 H       
  50 H50           -0.2928    -2.0935    -4.2433 H       
  51 H51           -4.1188    -2.8683    -2.9020 H       
  52 H52           -3.6850    -1.1757    -3.2453 H       
@<TRIPOS>BOND
   1    1    2 ar
   2    1    6 ar
   3    1   33 1
   4    2    3 ar
   5    2   26 1
   6    3    4 ar
   7    3   34 1
   8    4    5 ar
   9    4    7 1
  10    5    6 ar
  11    5    9 1
  12    6   35 1
  13    7    8 2
  14    8    9 1
  15    8   10 1
  16    9   36 1
  17   10   11 1
  18   10   14 2
  19   11   12 2
  20   11   15 1
  21   12   13 1
  22   12   37 1
  23   13   14 1
  24   13   38 1
  25   15   16 am
  26   15   39 1
  27   16   17 1
  28   16   18 2
  29   17   19 ar
  30   17   23 ar
  31   19   20 ar
  32   19   24 1
  33   20   21 ar
  34   20   40 1
  35   21   22 ar
  36   21   41 1
  37   22   23 ar
  38   22   42 1
  39   23   25 1
  40   26   27 1
  41   26   43 1
  42   26   44 1
  43   27   28 1
  44   27   29 1
  45   28   32 1
  46   28   45 1
  47   28   46 1
  48   29   30 1
  49   29   47 1
  50   29   48 1
  51   30   31 1
  52   30   49 1
  53   30   50 1
  54   31   32 1
  55   32   51 1
  56   32   52 1

#	End of record

