#	Name: ASD01811522
#	Creating user name:	WinNT
#	Creation time:	15. 06. 2019 19:26

#	Modifying user name:	WinNT
#	Modification time:	15. 06. 2019 19:26

#	Program:	/corina/corina34_cracker 3.40 0067  02.08.2006

@<TRIPOS>MOLECULE
ASD01811522
  30   30    0    0    0
SMALL
NO_CHARGES


@<TRIPOS>ATOM
   1 C1             0.2143     1.4635     0.1510 C.2     
   2 C2             0.1146    -0.0084     0.0712 C.ar    
   3 C3             1.2008    -0.7603    -0.3841 C.ar    
   4 C4             1.1083    -2.1354    -0.4594 C.ar    
   5 C5            -0.0567    -2.7769    -0.0858 C.ar    
   6 C6            -1.1489    -2.0378     0.3707 C.ar    
   7 C7            -1.0611    -0.6509     0.4553 C.ar    
   8 O8             1.2752     2.0131    -0.0679 O.2     
   9 O9            -0.8726     2.1964     0.4610 O.3     
  10 C10           -0.1485    -4.2786    -0.1719 C.3     
  11 C11            2.4753    -0.0687    -0.7941 C.3     
  12 C12           -2.3968    -2.7277     0.7696 C.2     
  13 N13           -3.5160    -1.9894     1.1151 N.pl3   
  14 N14           -2.4416    -4.0273     0.7955 N.2     
  15 O15           -3.6350    -4.6871     1.1770 O.3     
  16 C16           -0.7010     3.6370     0.5215 C.3     
  17 H17            1.9503    -2.7123    -0.8122 H       
  18 H18           -1.9021    -0.0750     0.8125 H       
  19 H19            0.0470    -4.7115     0.8092 H       
  20 H20           -1.1476    -4.5632    -0.5020 H       
  21 H21            0.5886    -4.6475    -0.8852 H       
  22 H22            3.0736     0.1454     0.0915 H       
  23 H23            3.0396    -0.7152    -1.4662 H       
  24 H24            2.2347     0.8641    -1.3042 H       
  25 H25           -3.4826    -1.0202     1.0957 H       
  26 H26           -4.3335    -2.4414     1.3764 H       
  27 H27           -3.5718    -5.6519     1.1659 H       
  28 H28            0.0436     3.8827     1.2786 H       
  29 H29           -0.3672     4.0042    -0.4490 H       
  30 H30           -1.6506     4.1054     0.7802 H       
@<TRIPOS>BOND
   1    1    2 1
   2    1    8 2
   3    1    9 1
   4    2    3 ar
   5    2    7 ar
   6    3    4 ar
   7    3   11 1
   8    4    5 ar
   9    4   17 1
  10    5    6 ar
  11    5   10 1
  12    6    7 ar
  13    6   12 1
  14    7   18 1
  15    9   16 1
  16   10   19 1
  17   10   20 1
  18   10   21 1
  19   11   22 1
  20   11   23 1
  21   11   24 1
  22   12   13 1
  23   12   14 2
  24   13   25 1
  25   13   26 1
  26   14   15 1
  27   15   27 1
  28   16   28 1
  29   16   29 1
  30   16   30 1

#	End of record

