#	Name: ASD00740007
#	Creating user name:	WinNT
#	Creation time:	15. 06. 2019 18:37

#	Modifying user name:	WinNT
#	Modification time:	15. 06. 2019 18:37

#	Program:	/corina/corina34_cracker 3.40 0067  02.08.2006

@<TRIPOS>MOLECULE
ASD00740007
  68   72    0    0    0
SMALL
NO_CHARGES


@<TRIPOS>ATOM
   1 C1             0.0431     0.7837     1.0709 C.ar    
   2 C2             0.3813    -0.2799     1.9115 C.ar    
   3 N3             1.6388    -0.7164     1.9253 N.ar    
   4 C4             2.5562    -0.1531     1.1554 C.ar    
   5 N5             2.2637     0.8573     0.3490 N.ar    
   6 C6             1.0342     1.3424     0.2833 C.ar    
   7 N7             3.8558    -0.6315     1.1938 N.pl3   
   8 C8             4.8638     0.0251     0.4814 C.ar    
   9 C9             4.7970     1.3975     0.2888 C.ar    
  10 C10            5.7998     2.0456    -0.4185 C.ar    
  11 C11            6.8670     1.3188    -0.9313 C.ar    
  12 C12            6.9305    -0.0480    -0.7380 C.ar    
  13 C13            5.9369    -0.6953    -0.0295 C.ar    
  14 N14            5.7360     3.4286    -0.6154 N.am    
  15 C15            6.8664     4.1626    -0.6128 C.2     
  16 C16            6.7912     5.6358    -0.7071 C.ar    
  17 C17            7.9601     6.3989    -0.7048 C.ar    
  18 C18            7.8829     7.7734    -0.7935 C.ar    
  19 C19            6.6505     8.3957    -0.8848 C.ar    
  20 C20            5.4881     7.6453    -0.8872 C.ar    
  21 C21            5.5514     6.2697    -0.8048 C.ar    
  22 C22            6.5740     9.8977    -0.9815 C.3     
  23 N23            6.6080    10.2998    -2.3940 N.3     
  24 C24            6.2986    11.7288    -2.5423 C.3     
  25 C25            6.4221    12.1244    -4.0156 C.3     
  26 N26            5.5052    11.3038    -4.8190 N.3     
  27 C27            5.8146     9.8749    -4.6707 C.3     
  28 C28            5.6911     9.4792    -3.1974 C.3     
  29 C29            6.0103    -2.1859     0.1792 C.3     
  30 C30            5.5392    11.7060    -6.2315 C.3     
  31 C31           -0.6447    -0.9125     2.7755 C.ar    
  32 C32           -0.3071    -1.9765     3.6167 C.ar    
  33 C33           -1.3014    -2.5325     4.4034 C.ar    
  34 C34           -2.5846    -2.0223     4.3326 C.ar    
  35 N35           -2.8735    -1.0169     3.5288 N.ar    
  36 C36           -1.9602    -0.4520     2.7662 C.ar    
  37 O37            7.9477     3.6130    -0.5329 O.2     
  38 H38           -0.9693     1.1580     1.0335 H       
  39 H39            0.8069     2.1658    -0.3777 H       
  40 H40            4.0664    -1.4220     1.7150 H       
  41 H41            3.9661     1.9602     0.6880 H       
  42 H42            7.6478     1.8225    -1.4818 H       
  43 H43            7.7610    -0.6108    -1.1379 H       
  44 H44            4.8781     3.8597    -0.7537 H       
  45 H45            8.9226     5.9144    -0.6332 H       
  46 H46            8.7865     8.3650    -0.7914 H       
  47 H47            4.5293     8.1373    -0.9580 H       
  48 H48            4.6433     5.6850    -0.8071 H       
  49 H49            5.6456    10.2442    -0.5273 H       
  50 H50            7.4217    10.3392    -0.4575 H       
  51 H51            5.2816    11.9182    -2.1989 H       
  52 H52            6.9987    12.3160    -1.9481 H       
  53 H53            6.1649    13.1772    -4.1322 H       
  54 H54            7.4460    11.9606    -4.3516 H       
  55 H55            5.1144     9.2876    -5.2649 H       
  56 H56            6.8316     9.6854    -5.0141 H       
  57 H57            5.9483     8.4264    -3.0808 H       
  58 H58            4.6672     9.6431    -2.8614 H       
  59 H59            6.5529    -2.3974     1.1007 H       
  60 H60            5.0017    -2.5931     0.2498 H       
  61 H61            6.5296    -2.6454    -0.6618 H       
  62 H62            6.5501    11.5828    -6.6201 H       
  63 H63            4.8516    11.0828    -6.8034 H       
  64 H64            5.2411    12.7507    -6.3191 H       
  65 H65            0.7036    -2.3555     3.6517 H       
  66 H66           -1.0772    -3.3561     5.0651 H       
  67 H67           -3.3627    -2.4539     4.9447 H       
  68 H68           -2.2351     0.3695     2.1212 H       
@<TRIPOS>BOND
   1    1    2 ar
   2    1    6 ar
   3    1   38 1
   4    2    3 ar
   5    2   31 1
   6    3    4 ar
   7    4    5 ar
   8    4    7 1
   9    5    6 ar
  10    6   39 1
  11    7    8 1
  12    7   40 1
  13    8    9 ar
  14    8   13 ar
  15    9   10 ar
  16    9   41 1
  17   10   11 ar
  18   10   14 1
  19   11   12 ar
  20   11   42 1
  21   12   13 ar
  22   12   43 1
  23   13   29 1
  24   14   15 am
  25   14   44 1
  26   15   16 1
  27   15   37 2
  28   16   17 ar
  29   16   21 ar
  30   17   18 ar
  31   17   45 1
  32   18   19 ar
  33   18   46 1
  34   19   20 ar
  35   19   22 1
  36   20   21 ar
  37   20   47 1
  38   21   48 1
  39   22   23 1
  40   22   49 1
  41   22   50 1
  42   23   24 1
  43   23   28 1
  44   24   25 1
  45   24   51 1
  46   24   52 1
  47   25   26 1
  48   25   53 1
  49   25   54 1
  50   26   27 1
  51   26   30 1
  52   27   28 1
  53   27   55 1
  54   27   56 1
  55   28   57 1
  56   28   58 1
  57   29   59 1
  58   29   60 1
  59   29   61 1
  60   30   62 1
  61   30   63 1
  62   30   64 1
  63   31   32 ar
  64   31   36 ar
  65   32   33 ar
  66   32   65 1
  67   33   34 ar
  68   33   66 1
  69   34   35 ar
  70   34   67 1
  71   35   36 ar
  72   36   68 1

#	End of record

