#	Name: ASD01910430
#	Creating user name:	WinNT
#	Creation time:	15. 06. 2019 19:55

#	Modifying user name:	WinNT
#	Modification time:	15. 06. 2019 19:55

#	Program:	/corina/corina34_cracker 3.40 0067  02.08.2006

@<TRIPOS>MOLECULE
ASD01910430
  48   51    0    0    0
SMALL
NO_CHARGES


@<TRIPOS>ATOM
   1 C1            -1.3754     3.7212     0.1860 C.ar    
   2 C2            -1.7018     2.3869     0.3685 C.ar    
   3 C3            -0.7029     1.4432     0.5467 C.ar    
   4 C4             0.6216     1.8289     0.5435 C.ar    
   5 C5             0.9544     3.1697     0.3602 C.ar    
   6 C6            -0.0534     4.1154     0.1809 C.ar    
   7 F7            -2.9977     2.0051     0.3732 F       
   8 C8             2.3776     3.5893     0.3565 C.2     
   9 N9             2.8430     4.8481     0.1907 N.2     
  10 C10            4.1475     4.7526     0.2586 C.2     
  11 O11            4.4379     3.4635     0.4600 O.3     
  12 N12            3.4167     2.8118     0.5187 N.2     
  13 C13            5.1355     5.8836     0.1327 C.3     
  14 C14            5.9633     5.9839     1.4159 C.3     
  15 C15            6.9445     7.1528     1.3020 C.3     
  16 C16            7.8982     6.9014     0.1298 C.3     
  17 N17            7.1041     6.6597    -1.0825 N.am    
  18 C18            6.0687     5.6177    -1.0528 C.3     
  19 C19            7.3213     7.3802    -2.2006 C.2     
  20 C20            6.5769     7.0474    -3.4680 C.3     
  21 O21            8.1158     8.2965    -2.1868 O.2     
  22 C22            6.5647     8.2709    -4.3796 C.3     
  23 C23            5.5911     8.0482    -5.5399 C.3     
  24 S24            6.1771     6.6463    -6.5371 S.3     
  25 C25            6.3726     5.3407    -5.2879 C.3     
  26 C26            7.2583     5.8681    -4.1559 C.3     
  27 H27           -2.1568     4.4528     0.0430 H       
  28 H28           -0.9617     0.4043     0.6886 H       
  29 H29            1.3995     1.0929     0.6831 H       
  30 H30            0.2002     5.1555     0.0382 H       
  31 H31            4.5993     6.8188    -0.0284 H       
  32 H32            5.2993     6.1486     2.2645 H       
  33 H33            6.5180     5.0573     1.5636 H       
  34 H34            6.3918     8.0763     1.1295 H       
  35 H35            7.5175     7.2382     2.2253 H       
  36 H36            8.5340     7.7744    -0.0178 H       
  37 H37            8.5159     6.0287     0.3420 H       
  38 H38            6.5372     4.6403    -0.9370 H       
  39 H39            5.4973     5.6437    -1.9806 H       
  40 H40            5.5512     6.7740    -3.2204 H       
  41 H41            6.2527     9.1449    -3.8080 H       
  42 H42            7.5667     8.4376    -4.7749 H       
  43 H43            4.5988     7.8272    -5.1468 H       
  44 H44            5.5495     8.9445    -6.1588 H       
  45 H45            5.3956     5.0669    -4.8898 H       
  46 H46            6.8417     4.4679    -5.7421 H       
  47 H47            8.2150     6.1918    -4.5658 H       
  48 H48            7.4278     5.0738    -3.4290 H       
@<TRIPOS>BOND
   1    1    2 ar
   2    1    6 ar
   3    1   27 1
   4    2    3 ar
   5    2    7 1
   6    3    4 ar
   7    3   28 1
   8    4    5 ar
   9    4   29 1
  10    5    6 ar
  11    5    8 1
  12    6   30 1
  13    8    9 1
  14    8   12 2
  15    9   10 2
  16   10   11 1
  17   10   13 1
  18   11   12 1
  19   13   14 1
  20   13   18 1
  21   13   31 1
  22   14   15 1
  23   14   32 1
  24   14   33 1
  25   15   16 1
  26   15   34 1
  27   15   35 1
  28   16   17 1
  29   16   36 1
  30   16   37 1
  31   17   18 1
  32   17   19 am
  33   18   38 1
  34   18   39 1
  35   19   20 1
  36   19   21 2
  37   20   22 1
  38   20   26 1
  39   20   40 1
  40   22   23 1
  41   22   41 1
  42   22   42 1
  43   23   24 1
  44   23   43 1
  45   23   44 1
  46   24   25 1
  47   25   26 1
  48   25   45 1
  49   25   46 1
  50   26   47 1
  51   26   48 1

#	End of record

