#	Name: ASD05130120
#	Creating user name:	WinNT
#	Creation time:	15. 06. 2019 20:56

#	Modifying user name:	WinNT
#	Modification time:	15. 06. 2019 20:56

#	Program:	/corina/corina34_cracker 3.40 0067  02.08.2006

@<TRIPOS>MOLECULE
ASD05130120
  65   68    0    0    0
SMALL
NO_CHARGES


@<TRIPOS>ATOM
   1 N1            -0.1623     1.5511     0.1044 N.am    
   2 C2             0.0503     0.4234     0.8111 C.2     
   3 O3             1.1175     0.2459     1.3662 O.2     
   4 N4            -0.9199    -0.5077     0.9025 N.am    
   5 C5            -0.6640    -1.7248     1.5463 C.ar    
   6 C6            -1.6749    -2.3643     2.2517 C.ar    
   7 C7            -1.4205    -3.5643     2.8858 C.ar    
   8 C8            -0.1581    -4.1299     2.8191 C.ar    
   9 C9             0.8513    -3.4937     2.1168 C.ar    
  10 C10            0.5991    -2.2965     1.4755 C.ar    
  11 F11            0.0889    -5.3038     3.4406 F       
  12 C12           -2.5172    -4.2587     3.6514 C.3     
  13 N13           -3.0019    -5.4094     2.8774 N.3     
  14 C14           -3.8987    -6.2470     3.6849 C.3     
  15 C15           -3.6624    -4.9712     1.6406 C.3     
  16 C16            0.8116     2.5583     0.0824 C.ar    
  17 C17            0.4349     3.8870    -0.0894 C.ar    
  18 C18            1.3936     4.8844    -0.1113 C.ar    
  19 C19            2.7299     4.5663     0.0374 C.ar    
  20 C20            3.1154     3.2364     0.2101 C.ar    
  21 C21            2.1489     2.2321     0.2374 C.ar    
  22 F22           -0.8703     4.2037    -0.2358 F       
  23 N23            6.5380     2.8539     1.7792 N.am    
  24 C24            5.2354     3.1662     1.6334 C.2     
  25 C25            4.5479     2.8930     0.3693 C.2     
  26 C26            5.2371     2.3183    -0.6636 C.2     
  27 C27            6.6044     1.9995    -0.4860 C.ar    
  28 C28            7.3482     1.4109    -1.5160 C.ar    
  29 N29            8.6182     1.1213    -1.3347 N.ar    
  30 C30            9.2441     1.3682    -0.1888 C.ar    
  31 C31            8.5821     1.9494     0.8833 C.ar    
  32 C32            7.2381     2.2757     0.7454 C.ar    
  33 O33            4.6270     3.6774     2.5567 O.2     
  34 N34           10.5856     1.0381    -0.0617 N.pl3   
  35 C35           11.2895     1.3040     1.1952 C.3     
  36 C36            7.2159     3.1377     3.0465 C.3     
  37 C37            7.0840     1.9303     3.9770 C.3     
  38 Cl38           3.9293     5.8210     0.0087 Cl      
  39 H39           -0.9879     1.6639    -0.3921 H       
  40 H40           -1.7954    -0.3347     0.5224 H       
  41 H41           -2.6593    -1.9232     2.3045 H       
  42 H42            1.8352    -3.9362     2.0662 H       
  43 H43            1.3855    -1.8029     0.9237 H       
  44 H44           -2.1292    -4.6032     4.6100 H       
  45 H45           -3.3388    -3.5628     3.8209 H       
  46 H46           -4.7562    -5.6559     4.0066 H       
  47 H47           -4.2428    -7.0914     3.0878 H       
  48 H48           -3.3624    -6.6150     4.5596 H       
  49 H49           -2.9544    -4.4119     1.0291 H       
  50 H50           -4.0116    -5.8427     1.0868 H       
  51 H51           -4.5114    -4.3340     1.8882 H       
  52 H52            1.0967     5.9141    -0.2453 H       
  53 H53            2.4423     1.2019     0.3753 H       
  54 H54            4.7441     2.1103    -1.6017 H       
  55 H55            6.8770     1.1935    -2.4632 H       
  56 H56            9.1024     2.1451     1.8092 H       
  57 H57           11.0574     0.6312    -0.8052 H       
  58 H58           12.3264     0.9799     1.1066 H       
  59 H59           11.2598     2.3724     1.4093 H       
  60 H60           10.8060     0.7577     2.0051 H       
  61 H61            8.2707     3.3373     2.8576 H       
  62 H62            6.7594     4.0094     3.5155 H       
  63 H63            7.5883     2.1415     4.9199 H       
  64 H64            6.0292     1.7307     4.1659 H       
  65 H65            7.5404     1.0586     3.5081 H       
@<TRIPOS>BOND
   1    1    2 am
   2    1   16 1
   3    1   39 1
   4    2    3 2
   5    2    4 am
   6    4    5 1
   7    4   40 1
   8    5    6 ar
   9    5   10 ar
  10    6    7 ar
  11    6   41 1
  12    7    8 ar
  13    7   12 1
  14    8    9 ar
  15    8   11 1
  16    9   10 ar
  17    9   42 1
  18   10   43 1
  19   12   13 1
  20   12   44 1
  21   12   45 1
  22   13   14 1
  23   13   15 1
  24   14   46 1
  25   14   47 1
  26   14   48 1
  27   15   49 1
  28   15   50 1
  29   15   51 1
  30   16   17 ar
  31   16   21 ar
  32   17   18 ar
  33   17   22 1
  34   18   19 ar
  35   18   52 1
  36   19   20 ar
  37   19   38 1
  38   20   21 ar
  39   20   25 1
  40   21   53 1
  41   23   24 am
  42   23   32 1
  43   23   36 1
  44   24   25 1
  45   24   33 2
  46   25   26 2
  47   26   27 1
  48   26   54 1
  49   27   28 ar
  50   27   32 ar
  51   28   29 ar
  52   28   55 1
  53   29   30 ar
  54   30   31 ar
  55   30   34 1
  56   31   32 ar
  57   31   56 1
  58   34   35 1
  59   34   57 1
  60   35   58 1
  61   35   59 1
  62   35   60 1
  63   36   37 1
  64   36   61 1
  65   36   62 1
  66   37   63 1
  67   37   64 1
  68   37   65 1

#	End of record

