#	Name: ASD09116458
#	Creating user name:	WinNT
#	Creation time:	15. 06. 2019 21:21

#	Modifying user name:	WinNT
#	Modification time:	15. 06. 2019 21:21

#	Program:	/corina/corina34_cracker 3.40 0067  02.08.2006

@<TRIPOS>MOLECULE
ASD09116458
  75   81    0    0    0
SMALL
NO_CHARGES


@<TRIPOS>ATOM
   1 N1            -0.0590     1.5277    -0.5290 N.2     
   2 N2            -0.0822     0.2490    -1.1089 N.pl3   
   3 C3             1.1947     1.9114    -0.4983 C.2     
   4 N4             1.9589     0.9475    -1.0254 N.2     
   5 C5             1.2029    -0.0627    -1.3987 C.2     
   6 N6             1.6431    -1.2349    -1.9834 N.pl3   
   7 C7            -1.2076    -0.5441    -1.3401 C.ar    
   8 N8             1.6572     3.1285     0.0026 N.pl3   
   9 C9             3.0304     3.3743     0.0834 C.ar    
  10 C10            3.5124     4.6734    -0.0238 C.ar    
  11 C11            3.9157     2.3210     0.2767 C.ar    
  12 C12            5.2729     2.5658     0.3561 C.ar    
  13 C13            5.7446     3.8627     0.2418 C.ar    
  14 C14            4.8731     4.9050     0.0568 C.ar    
  15 N15           -1.1867    -1.4612    -2.2956 N.ar    
  16 N16           -2.1986    -2.2101    -2.5557 N.ar    
  17 C17           -3.3307    -2.1064    -1.8784 C.ar    
  18 C18           -3.4382    -1.1801    -0.8371 C.ar    
  19 C19           -2.3541    -0.3743    -0.5598 C.ar    
  20 C20           -4.5159    -2.9302    -2.2114 C.ar    
  21 C21           -5.7520    -2.3013    -2.3690 C.ar    
  22 C22           -5.8381    -0.8041    -2.2526 C.3     
  23 C23           -5.7905    -0.3553    -0.7946 C.3     
  24 C24           -4.7031    -1.1079    -0.0322 C.3     
  25 C25           -4.4124    -4.3085    -2.3629 C.ar    
  26 C26           -5.5409    -5.0514    -2.6508 C.ar    
  27 C27           -6.7676    -4.4268    -2.7857 C.ar    
  28 C28           -6.8734    -3.0540    -2.6440 C.ar    
  29 C29            7.2342     4.1234     0.3284 C.3     
  30 C30            7.5257     4.8353     1.6517 C.3     
  31 C31            7.3415     6.3336     1.5130 C.3     
  32 C32            5.9063     6.7714     1.2973 C.3     
  33 C33            5.3964     6.3210    -0.0679 C.3     
  34 N34            7.8478     6.9800     2.7311 N.3     
  35 C35            9.2969     7.2044     2.6446 C.3     
  36 C36            9.7046     8.3742     3.5574 C.3     
  37 C37           10.6966     7.8019     4.5908 C.3     
  38 C38           11.2820     6.5453     3.9000 C.3     
  39 C39           10.0555     5.9620     3.1554 C.3     
  40 H40            2.5890    -1.3670    -2.1528 H       
  41 H41            1.0061    -1.9256    -2.2245 H       
  42 H42            1.0255     3.8041     0.2949 H       
  43 H43            2.8286     5.4966    -0.1695 H       
  44 H44            3.5428     1.3113     0.3653 H       
  45 H45            5.9633     1.7491     0.5070 H       
  46 H46           -2.3927     0.3660     0.2255 H       
  47 H47           -5.0030    -0.3560    -2.7911 H       
  48 H48           -6.7725    -0.4649    -2.6998 H       
  49 H49           -5.5821     0.7138    -0.7548 H       
  50 H50           -6.7560    -0.5496    -0.3276 H       
  51 H51           -5.0499    -2.1188     0.1820 H       
  52 H52           -4.5016    -0.5924     0.9068 H       
  53 H53           -3.4544    -4.7958    -2.2563 H       
  54 H54           -5.4652    -6.1220    -2.7713 H       
  55 H55           -7.6479    -5.0137    -3.0023 H       
  56 H56           -7.8344    -2.5726    -2.7496 H       
  57 H57            7.7743     3.1772     0.2948 H       
  58 H58            7.5445     4.7555    -0.5037 H       
  59 H59            6.8465     4.4603     2.4173 H       
  60 H60            8.5526     4.6270     1.9519 H       
  61 H61            7.9388     6.6788     0.6691 H       
  62 H62            5.2782     6.3353     2.0741 H       
  63 H63            5.8500     7.8581     1.3605 H       
  64 H64            6.2123     6.3461    -0.7902 H       
  65 H65            4.5931     6.9811    -0.3950 H       
  66 H66            7.3583     7.8435     2.9124 H       
  67 H67            9.5805     7.4184     1.6142 H       
  68 H68           10.1868     9.1556     2.9700 H       
  69 H69            8.8271     8.7755     4.0645 H       
  70 H70           11.4858     8.5234     4.8024 H       
  71 H71           10.1755     7.5254     5.5074 H       
  72 H72           12.0661     6.8219     3.1952 H       
  73 H73           11.6575     5.8377     4.6392 H       
  74 H74            9.4308     5.3884     3.8401 H       
  75 H75           10.3767     5.3408     2.3193 H       
@<TRIPOS>BOND
   1    1    2 1
   2    1    3 2
   3    2    7 1
   4    2    5 1
   5    3    4 1
   6    3    8 1
   7    4    5 2
   8    5    6 1
   9    6   40 1
  10    6   41 1
  11    7   15 ar
  12    7   19 ar
  13    8    9 1
  14    8   42 1
  15    9   10 ar
  16    9   11 ar
  17   10   14 ar
  18   10   43 1
  19   11   12 ar
  20   11   44 1
  21   12   13 ar
  22   12   45 1
  23   13   14 ar
  24   13   29 1
  25   14   33 1
  26   15   16 ar
  27   16   17 ar
  28   17   18 ar
  29   17   20 1
  30   18   19 ar
  31   18   24 1
  32   19   46 1
  33   20   21 ar
  34   20   25 ar
  35   21   22 1
  36   21   28 ar
  37   22   23 1
  38   22   47 1
  39   22   48 1
  40   23   24 1
  41   23   49 1
  42   23   50 1
  43   24   51 1
  44   24   52 1
  45   25   26 ar
  46   25   53 1
  47   26   27 ar
  48   26   54 1
  49   27   28 ar
  50   27   55 1
  51   28   56 1
  52   29   30 1
  53   29   57 1
  54   29   58 1
  55   30   31 1
  56   30   59 1
  57   30   60 1
  58   31   32 1
  59   31   34 1
  60   31   61 1
  61   32   33 1
  62   32   62 1
  63   32   63 1
  64   33   64 1
  65   33   65 1
  66   34   35 1
  67   34   66 1
  68   35   36 1
  69   35   39 1
  70   35   67 1
  71   36   37 1
  72   36   68 1
  73   36   69 1
  74   37   38 1
  75   37   70 1
  76   37   71 1
  77   38   39 1
  78   38   72 1
  79   38   73 1
  80   39   74 1
  81   39   75 1

#	End of record

