#	Name: ASD02039406
#	Creating user name:	WinNT
#	Creation time:	15. 06. 2019 20:18

#	Modifying user name:	WinNT
#	Modification time:	15. 06. 2019 20:18

#	Program:	/corina/corina34_cracker 3.40 0067  02.08.2006

@<TRIPOS>MOLECULE
ASD02039406
  50   53    0    0    0
SMALL
NO_CHARGES


@<TRIPOS>ATOM
   1 C1             0.1208     0.9731    -0.3191 C.2     
   2 C2             0.4441    -0.3841    -0.4225 C.2     
   3 C3             1.0928     2.1004    -0.0838 C.3     
   4 N4             1.5723     2.6085    -1.3715 N.am    
   5 C5             0.8717     3.7140    -2.0297 C.3     
   6 C6             2.6581     2.0588    -1.9507 C.2     
   7 C7             3.4140     1.0067    -1.2493 C.2     
   8 C8             4.5856     0.4435    -1.6630 C.2     
   9 N9             3.0746     0.4251    -0.0705 N.2     
  10 C10            3.9789    -0.4588     0.2386 C.2     
  11 N11            4.9321    -0.4734    -0.7292 N.pl3   
  12 O12            3.0138     2.4313    -3.0525 O.2     
  13 C13            6.1212    -1.3287    -0.7578 C.3     
  14 N14           -0.6617    -1.0543    -0.6259 N.2     
  15 N15           -1.7259    -0.1439    -0.6584 N.pl3   
  16 C16           -1.2182     1.0954    -0.4733 C.2     
  17 C17           -3.0784    -0.4613    -0.8544 C.ar    
  18 C18           -3.4618    -1.7828    -1.0387 C.ar    
  19 C19           -4.7929    -2.0947    -1.2316 C.ar    
  20 C20           -5.7472    -1.0876    -1.2418 C.ar    
  21 C21           -5.3644     0.2333    -1.0582 C.ar    
  22 C22           -4.0344     0.5455    -0.8586 C.ar    
  23 O23           -7.0576    -1.3951    -1.4322 O.3     
  24 C24           -7.9857    -0.3085    -1.4309 C.3     
  25 F25           -7.6571     0.5867    -2.4546 F       
  26 F26           -9.2791    -0.7998    -1.6385 F       
  27 F27           -7.9297     0.3513    -0.1986 F       
  28 C28            1.7920     4.8840    -2.4154 C.3     
  29 C29            0.9879     4.9828    -3.7224 C.3     
  30 C30            0.6511     3.4940    -3.5356 C.3     
  31 H31            1.4354    -0.8062    -0.3476 H       
  32 H32            0.5941     2.9025     0.4603 H       
  33 H33            1.9377     1.7358     0.5003 H       
  34 H34           -0.0271     4.0230    -1.4959 H       
  35 H35            5.1320     0.6830    -2.5633 H       
  36 H36            3.9738    -1.0783     1.1232 H       
  37 H37            5.8870    -2.2594    -1.2746 H       
  38 H38            6.9262    -0.8143    -1.2826 H       
  39 H39            6.4350    -1.5488     0.2626 H       
  40 H40           -1.7810     2.0167    -0.4456 H       
  41 H41           -2.7190    -2.5668    -1.0315 H       
  42 H42           -5.0913    -3.1227    -1.3749 H       
  43 H43           -6.1075     1.0170    -1.0669 H       
  44 H44           -3.7365     1.5737    -0.7153 H       
  45 H45            1.6844     5.7555    -1.7696 H       
  46 H46            2.8315     4.5914    -2.5633 H       
  47 H47            0.1202     5.6389    -3.6527 H       
  48 H48            1.6030     5.1846    -4.5994 H       
  49 H49            1.3786     2.8214    -3.9898 H       
  50 H50           -0.3777     3.2433    -3.7941 H       
@<TRIPOS>BOND
   1    1    2 1
   2    1    3 1
   3    1   16 2
   4    2   14 2
   5    2   31 1
   6    3    4 1
   7    3   32 1
   8    3   33 1
   9    4    5 1
  10    4    6 am
  11    5   28 1
  12    5   30 1
  13    5   34 1
  14    6    7 1
  15    6   12 2
  16    7    8 2
  17    7    9 1
  18    8   11 1
  19    8   35 1
  20    9   10 2
  21   10   11 1
  22   10   36 1
  23   11   13 1
  24   13   37 1
  25   13   38 1
  26   13   39 1
  27   14   15 1
  28   15   16 1
  29   15   17 1
  30   16   40 1
  31   17   18 ar
  32   17   22 ar
  33   18   19 ar
  34   18   41 1
  35   19   20 ar
  36   19   42 1
  37   20   21 ar
  38   20   23 1
  39   21   22 ar
  40   21   43 1
  41   22   44 1
  42   23   24 1
  43   24   25 1
  44   24   26 1
  45   24   27 1
  46   28   29 1
  47   28   45 1
  48   28   46 1
  49   29   30 1
  50   29   47 1
  51   29   48 1
  52   30   49 1
  53   30   50 1

#	End of record

