#	Name: ASD01914357
#	Creating user name:	WinNT
#	Creation time:	15. 06. 2019 20:03

#	Modifying user name:	WinNT
#	Modification time:	15. 06. 2019 20:03

#	Program:	/corina/corina34_cracker 3.40 0067  02.08.2006

@<TRIPOS>MOLECULE
ASD01914357
  32   34    0    0    0
SMALL
NO_CHARGES


@<TRIPOS>ATOM
   1 C1            -0.0163     1.3509     0.0095 C.2     
   2 N2             0.0021    -0.0041     0.0020 N.pl3   
   3 C3            -1.2082    -0.8318     0.0137 C.3     
   4 C4            -2.3874     0.0484     0.4469 C.3     
   5 N5            -2.4021     1.2844    -0.3482 N.3     
   6 C6            -1.2836     2.1688     0.0204 C.3     
   7 C7             1.2585     1.7812    -0.0004 C.2     
   8 C8             2.0908     0.6539    -0.0167 C.2     
   9 N9             1.3335    -0.4164    -0.0160 N.2     
  10 C10            3.5976     0.6693    -0.0327 C.3     
  11 O11            4.0603     2.0213    -0.0288 O.3     
  12 C12            5.4061     2.2131    -0.0419 C.ar    
  13 C13            5.9240     3.4998    -0.0391 C.ar    
  14 C14            7.2918     3.6933    -0.0525 C.ar    
  15 C15            8.1456     2.6035    -0.0688 C.ar    
  16 C16            6.2627     1.1221    -0.0525 C.ar    
  17 C17            7.6300     1.3185    -0.0716 C.ar    
  18 F18            9.4830     2.7941    -0.0823 F       
  19 H19           -1.3924    -1.2278    -0.9850 H       
  20 H20           -1.0846    -1.6539     0.7187 H       
  21 H21           -3.3204    -0.4935     0.2920 H       
  22 H22           -2.2849     0.2978     1.5030 H       
  23 H23           -2.3877     1.0791    -1.3360 H       
  24 H24           -1.4478     2.5736     1.0190 H       
  25 H25           -1.2055     2.9834    -0.6997 H       
  26 H26            1.5824     2.8114     0.0032 H       
  27 H27            3.9756     0.1533     0.8500 H       
  28 H28            3.9566     0.1650    -0.9299 H       
  29 H29            5.2582     4.3501    -0.0267 H       
  30 H30            7.6953     4.6951    -0.0506 H       
  31 H31            5.8608     0.1197    -0.0502 H       
  32 H32            8.2972     0.4693    -0.0844 H       
@<TRIPOS>BOND
   1    1    2 1
   2    1    7 2
   3    1    6 1
   4    2    3 1
   5    2    9 1
   6    3    4 1
   7    3   19 1
   8    3   20 1
   9    4    5 1
  10    4   21 1
  11    4   22 1
  12    5    6 1
  13    5   23 1
  14    6   24 1
  15    6   25 1
  16    7    8 1
  17    7   26 1
  18    8    9 2
  19    8   10 1
  20   10   11 1
  21   10   27 1
  22   10   28 1
  23   11   12 1
  24   12   13 ar
  25   12   16 ar
  26   13   14 ar
  27   13   29 1
  28   14   15 ar
  29   14   30 1
  30   15   17 ar
  31   15   18 1
  32   16   17 ar
  33   16   31 1
  34   17   32 1

#	End of record

