#	Name: ASD09740531
#	Creating user name:	WinNT
#	Creation time:	15. 06. 2019 21:23

#	Modifying user name:	WinNT
#	Modification time:	15. 06. 2019 21:23

#	Program:	/corina/corina34_cracker 3.40 0067  02.08.2006

@<TRIPOS>MOLECULE
ASD09740531
  63   67    0    0    0
SMALL
NO_CHARGES


@<TRIPOS>ATOM
   1 N1             0.0698     1.2248     0.3087 N.2     
   2 C2            -0.0152    -0.0794     0.2242 C.2     
   3 C3             1.2656     1.7424     0.3504 C.2     
   4 S4             2.4603     0.4501     0.2757 S.3     
   5 C5             1.1629    -0.7398     0.1900 C.2     
   6 C6             1.5705     3.1850     0.4446 C.ar    
   7 C7             0.5341     4.1140     0.4968 C.ar    
   8 C8             2.8994     3.6174     0.4871 C.ar    
   9 C9             3.1896     4.9618     0.5755 C.ar    
  10 C10            2.1651     5.8963     0.6233 C.ar    
  11 C11            0.8277     5.4737     0.5861 C.ar    
  12 O12            2.4566     7.2184     0.7110 O.3     
  13 C13            3.8315     7.5699     0.8781 C.3     
  14 C14            4.5123     7.6310    -0.4907 C.3     
  15 C15            3.9294     8.9371     1.5579 C.3     
  16 C16           -0.2317     6.4360     0.6348 C.1     
  17 N17           -1.0721     7.1994     0.6735 N.1     
  18 C18            1.3339    -2.2048     0.0970 C.ar    
  19 C19            2.1937    -2.7496    -0.8613 C.ar    
  20 C20            2.3489    -4.1181    -0.9429 C.ar    
  21 C21            1.6532    -4.9462    -0.0758 C.ar    
  22 C22            0.8014    -4.4123     0.8735 C.ar    
  23 C23            0.6420    -3.0456     0.9692 C.ar    
  24 C24            3.0523    -2.0722    -1.9074 C.3     
  25 C25            4.0754    -3.1421    -2.3442 C.3     
  26 C26            3.3233    -4.4576    -2.0508 C.3     
  27 N27            4.2636    -5.4935    -1.6030 N.3     
  28 C28            4.8978    -5.1153    -0.3324 C.3     
  29 C29            5.8073    -6.2524     0.1391 C.3     
  30 N30            6.8196    -6.5255    -0.8907 N.3     
  31 C31            6.1854    -6.9037    -2.1613 C.3     
  32 C32            5.2759    -5.7666    -2.6327 C.3     
  33 C33            7.7600    -7.5614    -0.4428 C.3     
  34 H34           -0.9644    -0.5931     0.1849 H       
  35 H35           -0.4933     3.7821     0.4678 H       
  36 H36            3.7015     2.8951     0.4510 H       
  37 H37            4.2183     5.2891     0.6079 H       
  38 H38            4.3256     6.8205     1.4965 H       
  39 H39            4.4426     6.6570    -0.9750 H       
  40 H40            4.0182     8.3804    -1.1091 H       
  41 H41            5.5611     7.8992    -0.3632 H       
  42 H42            3.4444     8.8936     2.5331 H       
  43 H43            4.9782     9.2053     1.6853 H       
  44 H44            3.4353     9.6865     0.9395 H       
  45 H45            1.7772    -6.0170    -0.1425 H       
  46 H46            0.2637    -5.0662     1.5440 H       
  47 H47           -0.0230    -2.6282     1.7108 H       
  48 H48            2.4417    -1.7638    -2.7561 H       
  49 H49            3.5650    -1.2120    -1.4769 H       
  50 H50            4.2998    -3.0528    -3.4071 H       
  51 H51            4.9853    -3.0747    -1.7479 H       
  52 H52            2.7856    -4.7918    -2.9382 H       
  53 H53            5.4902    -4.2117    -0.4764 H       
  54 H54            4.1284    -4.9305     0.4172 H       
  55 H55            6.3011    -5.9623     1.0665 H       
  56 H56            5.2107    -7.1485     0.3092 H       
  57 H57            6.9548    -7.0885    -2.9109 H       
  58 H58            5.5930    -7.8073    -2.0172 H       
  59 H59            4.7821    -6.0566    -3.5602 H       
  60 H60            5.8725    -4.8704    -2.8029 H       
  61 H61            7.2146    -8.4822    -0.2359 H       
  62 H62            8.4982    -7.7440    -1.2236 H       
  63 H63            8.2648    -7.2266     0.4634 H       
@<TRIPOS>BOND
   1    1    2 1
   2    1    3 2
   3    2    5 2
   4    2   34 1
   5    3    4 1
   6    3    6 1
   7    4    5 1
   8    5   18 1
   9    6    7 ar
  10    6    8 ar
  11    7   11 ar
  12    7   35 1
  13    8    9 ar
  14    8   36 1
  15    9   10 ar
  16    9   37 1
  17   10   11 ar
  18   10   12 1
  19   11   16 1
  20   12   13 1
  21   13   14 1
  22   13   15 1
  23   13   38 1
  24   14   39 1
  25   14   40 1
  26   14   41 1
  27   15   42 1
  28   15   43 1
  29   15   44 1
  30   16   17 3
  31   18   19 ar
  32   18   23 ar
  33   19   20 ar
  34   19   24 1
  35   20   21 ar
  36   20   26 1
  37   21   22 ar
  38   21   45 1
  39   22   23 ar
  40   22   46 1
  41   23   47 1
  42   24   25 1
  43   24   48 1
  44   24   49 1
  45   25   26 1
  46   25   50 1
  47   25   51 1
  48   26   27 1
  49   26   52 1
  50   27   28 1
  51   27   32 1
  52   28   29 1
  53   28   53 1
  54   28   54 1
  55   29   30 1
  56   29   55 1
  57   29   56 1
  58   30   31 1
  59   30   33 1
  60   31   32 1
  61   31   57 1
  62   31   58 1
  63   32   59 1
  64   32   60 1
  65   33   61 1
  66   33   62 1
  67   33   63 1

#	End of record

