#	Name: ASD04560192
#	Creating user name:	WinNT
#	Creation time:	15. 06. 2019 20:49

#	Modifying user name:	WinNT
#	Modification time:	15. 06. 2019 20:49

#	Program:	/corina/corina34_cracker 3.40 0067  02.08.2006

@<TRIPOS>MOLECULE
ASD04560192
  40   42    0    0    0
SMALL
NO_CHARGES


@<TRIPOS>ATOM
   1 C1             3.2401     6.5825     2.4297 C.ar    
   2 C2             4.3539     7.1330     3.0326 C.ar    
   3 C3             5.5896     7.0442     2.4180 C.ar    
   4 C4             5.7142     6.4045     1.1987 C.ar    
   5 C5             4.6041     5.8514     0.5906 C.ar    
   6 C6             3.3620     5.9388     1.2050 C.ar    
   7 N7             2.2354     5.3796     0.5917 N.am    
   8 C8             1.0376     5.9879     0.6997 C.2     
   9 N9            -0.0282     5.5003     0.0343 N.am    
  10 O10            0.9186     6.9766     1.3974 O.2     
  11 C11           -1.2931     6.0734     0.2215 C.ar    
  12 C12           -1.4140     7.4368     0.4195 C.ar    
  13 C13           -2.4321     5.2722     0.2029 C.ar    
  14 C14           -3.6745     5.8232     0.3850 C.ar    
  15 C15           -2.6701     8.0075     0.6061 C.ar    
  16 S16           -3.1548     9.6796     0.8779 S.3     
  17 C17           -3.8195     7.2111     0.5944 C.ar    
  18 N18           -4.9499     7.9204     0.7893 N.2     
  19 C19           -4.8422     9.1924     0.9553 C.2     
  20 N20           -5.9060    10.0556     1.1654 N.am    
  21 C21           -7.1648     9.5760     1.2072 C.2     
  22 C22           -8.3215    10.5146     1.4356 C.3     
  23 O23           -7.3667     8.3892     1.0610 O.2     
  24 C24            7.0625     6.3110     0.5320 C.3     
  25 F25            8.0229     6.9393     1.3321 F       
  26 F26            7.4059     4.9656     0.3610 F       
  27 F27            7.0105     6.9412    -0.7159 F       
  28 H28            2.2761     6.6486     2.9121 H       
  29 H29            4.2597     7.6336     3.9849 H       
  30 H30            6.4591     7.4759     2.8914 H       
  31 H31            4.7020     5.3522    -0.3621 H       
  32 H32            2.3166     4.5541     0.0888 H       
  33 H33            0.0803     4.7527    -0.5741 H       
  34 H34           -0.5321     8.0600     0.4298 H       
  35 H35           -2.3361     4.2084     0.0433 H       
  36 H36           -4.5491     5.1898     0.3678 H       
  37 H37           -5.7445    11.0049     1.2823 H       
  38 H38           -7.9474    11.5327     1.5437 H       
  39 H39           -9.0021    10.4660     0.5856 H       
  40 H40           -8.8516    10.2240     2.3426 H       
@<TRIPOS>BOND
   1    1    2 ar
   2    1    6 ar
   3    1   28 1
   4    2    3 ar
   5    2   29 1
   6    3    4 ar
   7    3   30 1
   8    4    5 ar
   9    4   24 1
  10    5    6 ar
  11    5   31 1
  12    6    7 1
  13    7    8 am
  14    7   32 1
  15    8    9 am
  16    8   10 2
  17    9   11 1
  18    9   33 1
  19   11   13 ar
  20   11   12 ar
  21   12   15 ar
  22   12   34 1
  23   13   14 ar
  24   13   35 1
  25   14   17 ar
  26   14   36 1
  27   15   17 ar
  28   15   16 1
  29   16   19 1
  30   17   18 1
  31   18   19 2
  32   19   20 1
  33   20   21 am
  34   20   37 1
  35   21   22 1
  36   21   23 2
  37   22   38 1
  38   22   39 1
  39   22   40 1
  40   24   25 1
  41   24   26 1
  42   24   27 1

#	End of record

