#	Name: ASD02408445
#	Creating user name:	WinNT
#	Creation time:	15. 06. 2019 20:21

#	Modifying user name:	WinNT
#	Modification time:	15. 06. 2019 20:21

#	Program:	/corina/corina34_cracker 3.40 0067  02.08.2006

@<TRIPOS>MOLECULE
ASD02408445
  37   39    0    0    0
SMALL
NO_CHARGES


@<TRIPOS>ATOM
   1 C1            -0.0170     1.3996     0.0097 C.2     
   2 C2             0.0021    -0.0041     0.0020 C.2     
   3 N3            -1.2942    -0.4096     0.0122 N.pl3   
   4 N4            -2.1111     0.7280     0.0261 N.2     
   5 C5            -1.3663     1.7990     0.0303 C.2     
   6 C6            -1.7585    -1.7991     0.0084 C.3     
   7 C7            -2.5989    -2.0774     1.2670 C.3     
   8 C8            -4.0048    -2.4818     0.7775 C.3     
   9 C9            -3.7701    -3.0057    -0.6610 C.3     
  10 C10           -2.6831    -2.0440    -1.2019 C.3     
  11 C11            1.2638     2.1063     0.0013 C.2     
  12 N12            2.3912     1.3572    -0.0135 N.am    
  13 C13            2.3124     0.0026    -0.0204 C.2     
  14 N14            1.1828    -0.6424    -0.0127 N.2     
  15 O15            1.3139     3.3236     0.0070 O.2     
  16 C16            3.5931    -0.7914    -0.0379 C.3     
  17 C17            3.2664    -2.2861    -0.0432 C.3     
  18 C18            4.5666    -3.0923    -0.0610 C.3     
  19 O19            4.2615    -4.4883    -0.0659 O.3     
  20 H20           -1.7240     2.8180     0.0405 H       
  21 H21           -0.9059    -2.4772    -0.0288 H       
  22 H22           -2.1546    -2.8912     1.8401 H       
  23 H23           -2.6613    -1.1787     1.8806 H       
  24 H24           -4.4163    -3.2699     1.4082 H       
  25 H25           -4.6679    -1.6168     0.7650 H       
  26 H26           -3.4036    -4.0321    -0.6434 H       
  27 H27           -4.6820    -2.9301    -1.2533 H       
  28 H28           -3.1326    -1.1082    -1.5341 H       
  29 H29           -2.1299    -2.5126    -2.0159 H       
  30 H30            3.2590     1.7906    -0.0194 H       
  31 H31            4.1636    -0.5411    -0.9323 H       
  32 H32            4.1816    -0.5513     0.8475 H       
  33 H33            2.6958    -2.5365     0.8512 H       
  34 H34            2.6779    -2.5263    -0.9287 H       
  35 H35            5.1372    -2.8419    -0.9553 H       
  36 H36            5.1552    -2.8521     0.8245 H       
  37 H37            5.0405    -5.0612    -0.0770 H       
@<TRIPOS>BOND
   1    1    2 2
   2    1   11 1
   3    1    5 1
   4    2    3 1
   5    2   14 1
   6    3    4 1
   7    3    6 1
   8    4    5 2
   9    5   20 1
  10    6    7 1
  11    6   10 1
  12    6   21 1
  13    7    8 1
  14    7   22 1
  15    7   23 1
  16    8    9 1
  17    8   24 1
  18    8   25 1
  19    9   10 1
  20    9   26 1
  21    9   27 1
  22   10   28 1
  23   10   29 1
  24   11   12 am
  25   11   15 2
  26   12   13 1
  27   12   30 1
  28   13   14 2
  29   13   16 1
  30   16   17 1
  31   16   31 1
  32   16   32 1
  33   17   18 1
  34   17   33 1
  35   17   34 1
  36   18   19 1
  37   18   35 1
  38   18   36 1
  39   19   37 1

#	End of record

