#	Name: ASD03180105
#	Creating user name:	WinNT
#	Creation time:	15. 06. 2019 20:33

#	Modifying user name:	WinNT
#	Modification time:	15. 06. 2019 20:33

#	Program:	/corina/corina34_cracker 3.40 0067  02.08.2006

@<TRIPOS>MOLECULE
ASD03180105
  41   43    0    0    0
SMALL
NO_CHARGES


@<TRIPOS>ATOM
   1 N1            -0.0169     1.3934     0.0097 N.pl3   
   2 C2            -0.0118    -0.0037    -0.0285 C.ar    
   3 C3             0.9624    -2.0570    -0.7940 C.ar    
   4 C4            -0.0016    -2.7697    -0.1042 C.ar    
   5 C5            -0.9739    -2.1030     0.6184 C.ar    
   6 C6            -0.9818    -0.7223     0.6583 C.ar    
   7 C7             0.9603    -0.6767    -0.7583 C.ar    
   8 C8            -2.0415     0.0034     1.4466 C.3     
   9 N9             1.2944     3.3794    -0.0858 N.2     
  10 C10            2.5319     3.8772    -0.0788 C.2     
  11 C11            1.1804     2.0912     0.0006 C.2     
  12 S12            2.7805     1.3641     0.1056 S.3     
  13 C13            3.5171     2.9623     0.0186 C.2     
  14 C14            2.8029     5.3252    -0.1715 C.2     
  15 C15           -3.1947     0.3879     0.5174 C.3     
  16 O16            4.0086     5.9212    -0.1735 O.3     
  17 N17            3.9134     7.1230    -0.2610 N.2     
  18 C18            2.6613     7.5086    -0.3295 C.2     
  19 C19            1.8772     6.3283    -0.2786 C.2     
  20 C20            2.1651     8.9011    -0.4430 C.2     
  21 O21            0.9717     9.1177    -0.4973 O.2     
  22 O22            3.0379     9.9254    -0.4858 O.3     
  23 C23            2.4810    11.2618    -0.5973 C.3     
  24 C24            3.6168    12.2863    -0.6314 C.3     
  25 H25           -0.8585     1.8747     0.0386 H       
  26 H26            1.7204    -2.5809    -1.3574 H       
  27 H27            0.0023    -3.8493    -0.1337 H       
  28 H28           -1.7252    -2.6624     1.1559 H       
  29 H29            1.7131    -0.1208    -1.2975 H       
  30 H30           -2.4142    -0.6463     2.2384 H       
  31 H31           -1.6139     0.9042     1.8868 H       
  32 H32            4.5762     3.1728     0.0393 H       
  33 H33           -2.8220     1.0376    -0.2745 H       
  34 H34           -3.6224    -0.5129     0.0771 H       
  35 H35           -3.9611     0.9128     1.0875 H       
  36 H36            0.8013     6.2410    -0.3143 H       
  37 H37            1.8966    11.3365    -1.5143 H       
  38 H38            1.8383    11.4603     0.2604 H       
  39 H39            4.2595    12.0878    -1.4891 H       
  40 H40            3.1988    13.2895    -0.7152 H       
  41 H41            4.2012    12.2116     0.2856 H       
@<TRIPOS>BOND
   1    1    2 1
   2    1   11 1
   3    1   25 1
   4    2    7 ar
   5    2    6 ar
   6    3    4 ar
   7    3    7 ar
   8    3   26 1
   9    4    5 ar
  10    4   27 1
  11    5    6 ar
  12    5   28 1
  13    6    8 1
  14    7   29 1
  15    8   15 1
  16    8   30 1
  17    8   31 1
  18    9   11 2
  19    9   10 1
  20   10   13 2
  21   10   14 1
  22   11   12 1
  23   12   13 1
  24   13   32 1
  25   14   16 1
  26   14   19 2
  27   15   33 1
  28   15   34 1
  29   15   35 1
  30   16   17 1
  31   17   18 2
  32   18   19 1
  33   18   20 1
  34   19   36 1
  35   20   21 2
  36   20   22 1
  37   22   23 1
  38   23   24 1
  39   23   37 1
  40   23   38 1
  41   24   39 1
  42   24   40 1
  43   24   41 1

#	End of record

