#	Name: ASD03430200
#	Creating user name:	WinNT
#	Creation time:	15. 06. 2019 20:40

#	Modifying user name:	WinNT
#	Modification time:	15. 06. 2019 20:40

#	Program:	/corina/corina34_cracker 3.40 0067  02.08.2006

@<TRIPOS>MOLECULE
ASD03430200
  65   71    0    0    0
SMALL
NO_CHARGES


@<TRIPOS>ATOM
   1 C1             0.0500     1.3861     0.1042 C.ar    
   2 C2            -1.1506     2.0624     0.1139 C.ar    
   3 C3            -2.3380     1.3627     0.1380 C.ar    
   4 C4            -2.3344    -0.0301     0.1631 C.ar    
   5 C5            -1.1199    -0.7044     0.1451 C.ar    
   6 C6             0.0800    -0.0029     0.1124 C.ar    
   7 O7            -3.6042    -0.5243     0.2164 O.3     
   8 C8            -3.7809     1.7891     0.1303 C.3     
   9 C9            -4.5289     0.4932    -0.2129 C.3     
  10 C10           -4.6850     3.6380     1.1721 C.ar    
  11 C11           -4.2185     2.3549     1.4486 C.ar    
  12 C12           -4.0498     2.8709    -0.8761 C.2     
  13 N13           -4.5732     3.9087    -0.1938 N.am    
  14 O14           -3.8375     2.8206    -2.0692 O.2     
  15 C15           -4.2319     1.8673     2.7358 C.ar    
  16 C16           -4.7112     2.6524     3.7698 C.ar    
  17 C17           -5.1765     3.9276     3.5069 C.ar    
  18 C18           -5.1654     4.4209     2.2184 C.ar    
  19 C19           -4.9788     5.1730    -0.8127 C.3     
  20 C20            1.4891     1.8630     0.0909 C.3     
  21 C21            2.2547     0.5798     0.4917 C.3     
  22 O22            1.3602    -0.4668     0.0778 O.3     
  23 C23           -3.8130     6.1280    -0.8148 C.ar    
  24 C24           -2.9410     6.1480    -1.8889 C.ar    
  25 C25           -1.8716     7.0194    -1.8970 C.ar    
  26 C26           -1.6705     7.8825    -0.8185 C.ar    
  27 C27           -2.5543     7.8576     0.2617 C.ar    
  28 C28           -3.6227     6.9849     0.2547 C.ar    
  29 C29           -0.5265     8.8186    -0.8202 C.2     
  30 N30           -0.3351     9.6507     0.2226 N.am    
  31 O31            0.2418     8.8378    -1.7622 O.2     
  32 C32            0.8116    10.4529     0.2770 C.ar    
  33 C33            0.7495    11.7226     0.8481 C.ar    
  34 C34            1.8869    12.5113     0.8995 C.ar    
  35 C35            3.0804    12.0386     0.3851 C.ar    
  36 C36            3.1426    10.7794    -0.1819 C.ar    
  37 C37            2.0134     9.9836    -0.2321 C.ar    
  38 O38           -0.4248    12.1862     1.3530 O.3     
  39 C39           -0.4136    13.4965     1.9230 C.3     
  40 H40           -1.1612     3.1422     0.1030 H       
  41 H41           -1.1077    -1.7843     0.1570 H       
  42 H42           -4.7104     0.4236    -1.2854 H       
  43 H43           -5.4635     0.4267     0.3440 H       
  44 H44           -3.8683     0.8708     2.9390 H       
  45 H45           -4.7222     2.2698     4.7796 H       
  46 H46           -5.5506     4.5403     4.3138 H       
  47 H47           -5.5302     5.4180     2.0208 H       
  48 H48           -5.2998     4.9892    -1.8380 H       
  49 H49           -5.8029     5.6069    -0.2463 H       
  50 H50            1.7802     2.1950    -0.9057 H       
  51 H51            1.6441     2.6542     0.8243 H       
  52 H52            3.2019     0.5122    -0.0433 H       
  53 H53            2.4153     0.5467     1.5693 H       
  54 H54           -3.0978     5.4796    -2.7227 H       
  55 H55           -1.1913     7.0335    -2.7356 H       
  56 H56           -2.4041     8.5226     1.0993 H       
  57 H57           -4.3074     6.9648     1.0897 H       
  58 H58           -0.9915     9.6939     0.9354 H       
  59 H59            1.8416    13.4958     1.3412 H       
  60 H60            3.9662    12.6551     0.4262 H       
  61 H61            4.0768    10.4148    -0.5829 H       
  62 H62            2.0650     9.0001    -0.6753 H       
  63 H63            0.2937    13.5262     2.7518 H       
  64 H64           -0.1150    14.2201     1.1645 H       
  65 H65           -1.4109    13.7428     2.2874 H       
@<TRIPOS>BOND
   1    1    6 ar
   2    1   20 1
   3    1    2 ar
   4    2    3 ar
   5    2   40 1
   6    3    4 ar
   7    3    8 1
   8    4    5 ar
   9    4    7 1
  10    5    6 ar
  11    5   41 1
  12    6   22 1
  13    7    9 1
  14    8    9 1
  15    8   11 1
  16    8   12 1
  17    9   42 1
  18    9   43 1
  19   10   11 ar
  20   10   13 1
  21   10   18 ar
  22   11   15 ar
  23   12   13 am
  24   12   14 2
  25   13   19 1
  26   15   16 ar
  27   15   44 1
  28   16   17 ar
  29   16   45 1
  30   17   18 ar
  31   17   46 1
  32   18   47 1
  33   19   23 1
  34   19   48 1
  35   19   49 1
  36   20   21 1
  37   20   50 1
  38   20   51 1
  39   21   22 1
  40   21   52 1
  41   21   53 1
  42   23   24 ar
  43   23   28 ar
  44   24   25 ar
  45   24   54 1
  46   25   26 ar
  47   25   55 1
  48   26   27 ar
  49   26   29 1
  50   27   28 ar
  51   27   56 1
  52   28   57 1
  53   29   30 am
  54   29   31 2
  55   30   32 1
  56   30   58 1
  57   32   33 ar
  58   32   37 ar
  59   33   34 ar
  60   33   38 1
  61   34   35 ar
  62   34   59 1
  63   35   36 ar
  64   35   60 1
  65   36   37 ar
  66   36   61 1
  67   37   62 1
  68   38   39 1
  69   39   63 1
  70   39   64 1
  71   39   65 1

#	End of record

