#	Name: ASD01918385
#	Creating user name:	WinNT
#	Creation time:	15. 06. 2019 20:11

#	Modifying user name:	WinNT
#	Modification time:	15. 06. 2019 20:11

#	Program:	/corina/corina34_cracker 3.40 0067  02.08.2006

@<TRIPOS>MOLECULE
ASD01918385
  49   52    0    0    0
SMALL
NO_CHARGES


@<TRIPOS>ATOM
   1 C1            -0.3657     0.4296    -1.0300 C.ar    
   2 C2             0.1713     0.1207     0.2093 C.ar    
   3 N3             1.2477    -0.6281     0.3115 N.ar    
   4 C4             1.8606    -1.1160    -0.7598 C.ar    
   5 C5             1.3759    -0.8458    -2.0376 C.ar    
   6 C6             0.2431    -0.0594    -2.1754 C.ar    
   7 C7             3.0710    -1.9548    -0.5954 C.2     
   8 O8             3.7121    -2.2940    -1.5703 O.2     
   9 N9             3.4608    -2.3414     0.6354 N.am    
  10 C10            4.6373    -3.1996     0.7953 C.3     
  11 C11            4.9599    -3.3514     2.2832 C.3     
  12 C12            3.7623    -3.9701     3.0072 C.3     
  13 C13            3.4700    -5.3526     2.4169 C.3     
  14 C14            3.1819    -5.2208     0.9286 C.3     
  15 C15            4.3494    -4.5783     0.1941 C.3     
  16 O16            1.9684    -4.4894     0.7033 O.3     
  17 C17            0.9668    -5.3889     0.5862 C.2     
  18 N18            1.3736    -6.6004     0.3635 N.2     
  19 C19            2.8504    -6.5967     0.3182 C.3     
  20 C20           -0.4632    -5.0253     0.7015 C.ar    
  21 C21           -1.4398    -6.0210     0.7160 C.ar    
  22 C22           -2.7717    -5.6762     0.8242 C.ar    
  23 C23           -3.1397    -4.3464     0.9177 C.ar    
  24 C24           -2.1753    -3.3527     0.9039 C.ar    
  25 C25           -0.8391    -3.6857     0.8019 C.ar    
  26 Cl26          -2.6465    -1.6861     1.0218 Cl      
  27 C27           -0.4867     0.6504     1.4574 C.3     
  28 H28           -1.2525     1.0418    -1.1028 H       
  29 H29            1.8759    -1.2433    -2.9084 H       
  30 H30           -0.1565     0.1670    -3.1529 H       
  31 H31            2.9624    -2.0515     1.4154 H       
  32 H32            5.4878    -2.7498     0.2830 H       
  33 H33            5.8294    -3.9979     2.4020 H       
  34 H34            5.1754    -2.3718     2.7097 H       
  35 H35            3.9903    -4.0688     4.0685 H       
  36 H36            2.8900    -3.3289     2.8805 H       
  37 H37            4.3345    -6.0001     2.5634 H       
  38 H38            2.6038    -5.7853     2.9174 H       
  39 H39            4.0986    -4.4691    -0.8611 H       
  40 H40            5.2325    -5.2094     0.2936 H       
  41 H41            3.2091    -6.6642    -0.7089 H       
  42 H42            3.2611    -7.4024     0.9268 H       
  43 H43           -1.1542    -7.0599     0.6424 H       
  44 H44           -3.5285    -6.4467     0.8355 H       
  45 H45           -4.1834    -4.0817     1.0015 H       
  46 H46           -0.0874    -2.9103     0.7915 H       
  47 H47           -1.2777    -0.0318     1.7686 H       
  48 H48            0.2550     0.7334     2.2519 H       
  49 H49           -0.9131     1.6328     1.2543 H       
@<TRIPOS>BOND
   1    1    2 ar
   2    1    6 ar
   3    1   28 1
   4    2    3 ar
   5    2   27 1
   6    3    4 ar
   7    4    5 ar
   8    4    7 1
   9    5    6 ar
  10    5   29 1
  11    6   30 1
  12    7    8 2
  13    7    9 am
  14    9   10 1
  15    9   31 1
  16   10   11 1
  17   10   15 1
  18   10   32 1
  19   11   12 1
  20   11   33 1
  21   11   34 1
  22   12   13 1
  23   12   35 1
  24   12   36 1
  25   13   14 1
  26   13   37 1
  27   13   38 1
  28   14   15 1
  29   14   16 1
  30   14   19 1
  31   15   39 1
  32   15   40 1
  33   16   17 1
  34   17   18 2
  35   17   20 1
  36   18   19 1
  37   19   41 1
  38   19   42 1
  39   20   21 ar
  40   20   25 ar
  41   21   22 ar
  42   21   43 1
  43   22   23 ar
  44   22   44 1
  45   23   24 ar
  46   23   45 1
  47   24   25 ar
  48   24   26 1
  49   25   46 1
  50   27   47 1
  51   27   48 1
  52   27   49 1

#	End of record

