#	Name: ASD01230264
#	Creating user name:	WinNT
#	Creation time:	15. 06. 2019 19:12

#	Modifying user name:	WinNT
#	Modification time:	15. 06. 2019 19:12

#	Program:	/corina/corina34_cracker 3.40 0067  02.08.2006

@<TRIPOS>MOLECULE
ASD01230264
  38   40    0    0    0
SMALL
NO_CHARGES


@<TRIPOS>ATOM
   1 C1             0.6499     0.2522    -1.2043 C.ar    
   2 C2             0.1759    -0.2333     0.0253 C.ar    
   3 N3             1.6226     1.1519    -1.2235 N.ar    
   4 N4             0.7069     0.2136     1.1570 N.ar    
   5 C5             1.6766     1.1112     1.1225 C.ar    
   6 C6             2.1427     1.5886    -0.0877 C.ar    
   7 N7             0.1060    -0.2124    -2.3939 N.pl3   
   8 C8            -1.9635    -1.1124     0.9641 C.ar    
   9 C9            -0.9118    -1.2392     0.0593 C.ar    
  10 C10           -0.8977    -2.3302    -0.8174 C.ar    
  11 C11           -1.9339    -3.2414    -0.7483 C.ar    
  12 C12           -2.9483    -3.0469     0.1818 C.ar    
  13 N13           -2.9323    -2.0048     0.9973 N.ar    
  14 O14           -3.9686    -3.9377     0.2548 O.3     
  15 C15           -4.9819    -3.6851     1.2301 C.3     
  16 C16           -6.3173    -4.2436     0.7346 C.3     
  17 C17           -7.4023    -3.9731     1.7789 C.3     
  18 C18           -7.0228    -4.6522     3.0963 C.3     
  19 C19           -5.6874    -4.0937     3.5919 C.3     
  20 C20           -4.6024    -4.3642     2.5476 C.3     
  21 H21            2.1068     1.4732     2.0446 H       
  22 H22            2.9356     2.3216    -0.1067 H       
  23 H23           -0.6829    -0.7766    -2.3788 H       
  24 H24            0.5148     0.0272    -3.2403 H       
  25 H25           -1.9824    -0.2771     1.6483 H       
  26 H26           -0.0966    -2.4564    -1.5306 H       
  27 H27           -1.9556    -4.0949    -1.4097 H       
  28 H28           -5.0738    -2.6106     1.3886 H       
  29 H29           -6.5877    -3.7598    -0.2040 H       
  30 H30           -6.2254    -5.3181     0.5761 H       
  31 H31           -7.4942    -2.8986     1.9373 H       
  32 H32           -8.3537    -4.3710     1.4259 H       
  33 H33           -7.7958    -4.4595     3.8403 H       
  34 H34           -6.9309    -5.7267     2.9379 H       
  35 H35           -5.7793    -3.0192     3.7503 H       
  36 H36           -5.4170    -4.5776     4.5304 H       
  37 H37           -4.5105    -5.4387     2.3891 H       
  38 H38           -3.6510    -3.9663     2.9006 H       
@<TRIPOS>BOND
   1    1    2 ar
   2    1    3 ar
   3    1    7 1
   4    2    4 ar
   5    2    9 1
   6    3    6 ar
   7    4    5 ar
   8    5    6 ar
   9    5   21 1
  10    6   22 1
  11    7   23 1
  12    7   24 1
  13    8    9 ar
  14    8   13 ar
  15    8   25 1
  16    9   10 ar
  17   10   11 ar
  18   10   26 1
  19   11   12 ar
  20   11   27 1
  21   12   13 ar
  22   12   14 1
  23   14   15 1
  24   15   16 1
  25   15   20 1
  26   15   28 1
  27   16   17 1
  28   16   29 1
  29   16   30 1
  30   17   18 1
  31   17   31 1
  32   17   32 1
  33   18   19 1
  34   18   33 1
  35   18   34 1
  36   19   20 1
  37   19   35 1
  38   19   36 1
  39   20   37 1
  40   20   38 1

#	End of record

