#	Name: ASD03082079
#	Creating user name:	WinNT
#	Creation time:	15. 06. 2019 20:27

#	Modifying user name:	WinNT
#	Modification time:	15. 06. 2019 20:27

#	Program:	/corina/corina34_cracker 3.40 0067  02.08.2006

@<TRIPOS>MOLECULE
ASD03082079
  69   72    0    0    0
SMALL
NO_CHARGES


@<TRIPOS>ATOM
   1 C1            -0.0176     1.4478     0.0100 C.3     
   2 O2             0.0021    -0.0041     0.0020 O.3     
   3 C3            -1.1901    -0.6321     0.0100 C.2     
   4 C4            -1.2473    -2.1054     0.0027 C.ar    
   5 O5            -2.2179     0.0157     0.0233 O.2     
   6 C6            -0.0682    -2.8542    -0.0126 C.ar    
   7 C7            -0.1286    -4.2314    -0.0190 C.ar    
   8 C8            -1.3536    -4.8776    -0.0103 C.ar    
   9 C9            -2.5275    -4.1501     0.0044 C.ar    
  10 C10           -2.4861    -2.7636     0.0168 C.ar    
  11 C11            1.4178     1.9774    -0.0009 C.3     
  12 C12            2.0960     1.5891    -1.3176 C.3     
  13 C13            3.5108     2.1738    -1.3457 C.3     
  14 C14            3.4332     3.6929    -1.1776 C.3     
  15 N15            2.7773     4.0127     0.0968 N.3     
  16 C16            1.4008     3.5022     0.1283 C.3     
  17 C17            2.8087     5.4582     0.3568 C.3     
  18 C18            1.9534     6.1825    -0.6846 C.3     
  19 C19            1.9861     7.6880    -0.4137 C.3     
  20 C20            1.1308     8.4123    -1.4552 C.3     
  21 N21           -3.6720    -2.0264     0.0316 N.am    
  22 C22           -4.2797    -1.6543     1.1650 C.2     
  23 C23           -5.5313    -0.8745     0.8260 C.3     
  24 C24           -5.5418    -0.8604    -0.7162 C.3     
  25 C25           -4.2919    -1.6288    -1.0864 C.2     
  26 O26           -3.8892    -1.9029     2.2854 O.2     
  27 O27           -3.9154    -1.8548    -2.2163 O.2     
  28 C28           -6.7727    -1.5872     1.3664 C.3     
  29 O29            1.1614     9.8184    -1.2022 O.3     
  30 C30            0.4474    10.6122    -2.0430 C.ar    
  31 C31            0.4327    11.9868    -1.8558 C.ar    
  32 C32           -0.2939    12.7915    -2.7118 C.ar    
  33 C33           -1.0060    12.2282    -3.7545 C.ar    
  34 C34           -0.9933    10.8585    -3.9430 C.ar    
  35 C35           -0.2633    10.0499    -3.0934 C.ar    
  36 H36           -0.5448     1.8089    -0.8731 H       
  37 H37           -0.5278     1.7993     0.9068 H       
  38 H38            0.8894    -2.3549    -0.0198 H       
  39 H39            0.7837    -4.8092    -0.0311 H       
  40 H40           -1.3911    -5.9569    -0.0153 H       
  41 H41           -3.4788    -4.6614     0.0104 H       
  42 H42            1.9708     1.5470     0.8341 H       
  43 H43            2.1491     0.5030    -1.3936 H       
  44 H44            1.5211     1.9860    -2.1543 H       
  45 H45            4.0972     1.7471    -0.5319 H       
  46 H46            3.9837     1.9368    -2.2988 H       
  47 H47            4.4399     4.1108    -1.1828 H       
  48 H48            2.8584     4.1203    -1.9992 H       
  49 H49            0.8355     3.9305    -0.6994 H       
  50 H50            0.9313     3.7816     1.0715 H       
  51 H51            2.4137     5.6568     1.3531 H       
  52 H52            3.8365     5.8161     0.2955 H       
  53 H53            2.3484     5.9839    -1.6809 H       
  54 H54            0.9257     5.8246    -0.6233 H       
  55 H55            1.5911     7.8865     0.5826 H       
  56 H56            3.0139     8.0459    -0.4751 H       
  57 H57            1.5258     8.2137    -2.4515 H       
  58 H58            0.1031     8.0543    -1.3938 H       
  59 H59           -5.4691     0.1405     1.2185 H       
  60 H60           -6.4313    -1.3611    -1.0984 H       
  61 H61           -5.4847     0.1616    -1.0909 H       
  62 H62           -6.7084    -1.6557     2.4523 H       
  63 H63           -7.6641    -1.0241     1.0899 H       
  64 H64           -6.8299    -2.5895     0.9418 H       
  65 H65            0.9885    12.4272    -1.0412 H       
  66 H66           -0.3060    13.8616    -2.5662 H       
  67 H67           -1.5735    12.8590    -4.4227 H       
  68 H68           -1.5509    10.4208    -4.7578 H       
  69 H69           -0.2537     8.9801    -3.2411 H       
@<TRIPOS>BOND
   1    1    2 1
   2    1   11 1
   3    1   36 1
   4    1   37 1
   5    2    3 1
   6    3    4 1
   7    3    5 2
   8    4    6 ar
   9    4   10 ar
  10    6    7 ar
  11    6   38 1
  12    7    8 ar
  13    7   39 1
  14    8    9 ar
  15    8   40 1
  16    9   10 ar
  17    9   41 1
  18   10   21 1
  19   11   12 1
  20   11   16 1
  21   11   42 1
  22   12   13 1
  23   12   43 1
  24   12   44 1
  25   13   14 1
  26   13   45 1
  27   13   46 1
  28   14   15 1
  29   14   47 1
  30   14   48 1
  31   15   16 1
  32   15   17 1
  33   16   49 1
  34   16   50 1
  35   17   18 1
  36   17   51 1
  37   17   52 1
  38   18   19 1
  39   18   53 1
  40   18   54 1
  41   19   20 1
  42   19   55 1
  43   19   56 1
  44   20   29 1
  45   20   57 1
  46   20   58 1
  47   21   22 am
  48   21   25 am
  49   22   23 1
  50   22   26 2
  51   23   24 1
  52   23   28 1
  53   23   59 1
  54   24   25 1
  55   24   60 1
  56   24   61 1
  57   25   27 2
  58   28   62 1
  59   28   63 1
  60   28   64 1
  61   29   30 1
  62   30   31 ar
  63   30   35 ar
  64   31   32 ar
  65   31   65 1
  66   32   33 ar
  67   32   66 1
  68   33   34 ar
  69   33   67 1
  70   34   35 ar
  71   34   68 1
  72   35   69 1

#	End of record

