#	Name: ASD03091881
#	Creating user name:	WinNT
#	Creation time:	15. 06. 2019 20:31

#	Modifying user name:	WinNT
#	Modification time:	15. 06. 2019 20:31

#	Program:	/corina/corina34_cracker 3.40 0067  02.08.2006

@<TRIPOS>MOLECULE
ASD03091881
  50   53    0    0    0
SMALL
NO_CHARGES


@<TRIPOS>ATOM
   1 C1             0.2453     2.6878    -0.4387 C.ar    
   2 C2             0.1596     1.3728    -0.0201 C.ar    
   3 C3             1.3100     0.6274     0.1400 C.ar    
   4 C4             2.5535     1.1974    -0.1185 C.ar    
   5 C5             2.6402     2.5170    -0.5250 C.ar    
   6 C6             1.4782     3.2565    -0.6896 C.ar    
   7 N7             3.6964     0.4183     0.0243 N.pl3   
   8 C8             5.0257     0.9189    -0.2574 C.3     
   9 C9             5.1491     2.4131    -0.2312 C.3     
  10 C10            3.9578     3.1935    -0.7801 C.3     
  11 C11            5.2603     2.9660     1.2046 C.3     
  12 C12            4.6832     4.3622     1.0992 C.2     
  13 C13            3.9735     4.4933     0.0088 C.2     
  14 C14            5.4405     0.4299    -1.6212 C.ar    
  15 C15            4.4856     0.2073    -2.5956 C.ar    
  16 C16            4.8661    -0.2413    -3.8465 C.ar    
  17 C17            6.2015    -0.4669    -4.1232 C.ar    
  18 C18            7.1565    -0.2434    -3.1491 C.ar    
  19 C19            6.7765     0.2093    -1.8995 C.ar    
  20 S20           -1.2223     3.6376    -0.6595 S.o2    
  21 O21           -0.8956     4.6742    -1.5748 O.2     
  22 O22           -2.2729     2.7069    -0.8820 O.2     
  23 N23           -1.5503     4.3762     0.7859 N.am    
  24 C24            6.6162    -0.9569    -5.4867 C.3     
  25 C25            7.8181     0.4579    -0.8392 C.3     
  26 C26            3.0297     0.4532    -2.2939 C.3     
  27 H27           -0.8047     0.9304     0.1813 H       
  28 H28            1.2454    -0.3999     0.4669 H       
  29 H29            1.5383     4.2843    -1.0159 H       
  30 H30            3.5992    -0.4986     0.3254 H       
  31 H31            5.7141     0.5028     0.4782 H       
  32 H32            6.0360     2.7067    -0.7927 H       
  33 H33            4.0866     3.3815    -1.8460 H       
  34 H34            4.6732     2.3601     1.8948 H       
  35 H35            6.3030     3.0055     1.5200 H       
  36 H36            4.8372     5.1449     1.8272 H       
  37 H37            3.4686     5.3999    -0.2905 H       
  38 H38            4.1199    -0.4159    -4.6076 H       
  39 H39            8.1999    -0.4200    -3.3652 H       
  40 H40           -0.9653     4.2347     1.5466 H       
  41 H41           -2.3273     4.9505     0.8718 H       
  42 H42            6.8141    -0.1032    -6.1349 H       
  43 H43            7.5186    -1.5616    -5.3965 H       
  44 H44            5.8158    -1.5603    -5.9149 H       
  45 H45            7.9062    -0.4228    -0.2030 H       
  46 H46            8.7782     0.6609    -1.3136 H       
  47 H47            7.5232     1.3152    -0.2342 H       
  48 H48            2.8778     1.5097    -2.0731 H       
  49 H49            2.4272     0.1723    -3.1578 H       
  50 H50            2.7311    -0.1446    -1.4328 H       
@<TRIPOS>BOND
   1    1    2 ar
   2    1    6 ar
   3    1   20 1
   4    2    3 ar
   5    2   27 1
   6    3    4 ar
   7    3   28 1
   8    4    5 ar
   9    4    7 1
  10    5    6 ar
  11    5   10 1
  12    6   29 1
  13    7    8 1
  14    7   30 1
  15    8    9 1
  16    8   14 1
  17    8   31 1
  18    9   11 1
  19    9   10 1
  20    9   32 1
  21   10   13 1
  22   10   33 1
  23   11   12 1
  24   11   34 1
  25   11   35 1
  26   12   13 2
  27   12   36 1
  28   13   37 1
  29   14   15 ar
  30   14   19 ar
  31   15   16 ar
  32   15   26 1
  33   16   17 ar
  34   16   38 1
  35   17   18 ar
  36   17   24 1
  37   18   19 ar
  38   18   39 1
  39   19   25 1
  40   20   21 2
  41   20   22 2
  42   20   23 am
  43   23   40 1
  44   23   41 1
  45   24   42 1
  46   24   43 1
  47   24   44 1
  48   25   45 1
  49   25   46 1
  50   25   47 1
  51   26   48 1
  52   26   49 1
  53   26   50 1

#	End of record

