#	Name: ASD03082293
#	Creating user name:	WinNT
#	Creation time:	15. 06. 2019 20:27

#	Modifying user name:	WinNT
#	Modification time:	15. 06. 2019 20:27

#	Program:	/corina/corina34_cracker 3.40 0067  02.08.2006

@<TRIPOS>MOLECULE
ASD03082293
  43   46    0    0    0
SMALL
NO_CHARGES


@<TRIPOS>ATOM
   1 N1             0.1707     1.4113    -0.5520 N.am    
   2 N2             0.0608     0.0199    -0.3951 N.2     
   3 C3             1.1314    -0.3790     0.2508 C.2     
   4 N4             1.9085     0.6756     0.5102 N.2     
   5 C5             1.3498     1.7686     0.0353 C.2     
   6 N6             1.4127    -1.6964     0.6103 N.pl3   
   7 C7             0.4645    -2.6987     0.3890 C.ar    
   8 C8             0.8709    -4.0168     0.2261 C.ar    
   9 C9            -0.0695    -5.0075     0.0076 C.ar    
  10 C10           -1.4153    -4.6859    -0.0488 C.ar    
  11 C11           -1.8227    -3.3723     0.1130 C.ar    
  12 C12           -0.8862    -2.3792     0.3374 C.ar    
  13 C13            1.9014     3.1387     0.1217 C.ar    
  14 C14           -0.7086     2.2286    -1.1645 C.2     
  15 C15            1.0659     4.2368     0.3529 C.ar    
  16 C16            1.6229     5.4975     0.4261 C.ar    
  17 N17            2.9220     5.6734     0.2816 N.ar    
  18 C18            3.7449     4.6659     0.0623 C.ar    
  19 C19            3.2741     3.3716    -0.0197 C.ar    
  20 N20           -1.7979     1.7146    -1.7694 N.am    
  21 F21           -3.1362    -3.0611     0.0567 F       
  22 C22            5.2199     4.9316    -0.0948 C.3     
  23 F23            0.3253    -6.2897    -0.1515 F       
  24 C24           -2.7537     2.6030    -2.4352 C.3     
  25 O25           -0.5194     3.4288    -1.1715 O.2     
  26 C26            6.0998     4.7888     1.1487 C.3     
  27 C27            6.1704     3.7400     0.0371 C.3     
  28 H28            2.2666    -1.9172     1.0140 H       
  29 H29            1.9204    -4.2681     0.2695 H       
  30 H30           -2.1481    -5.4606    -0.2194 H       
  31 H31           -1.2047    -1.3555     0.4679 H       
  32 H32            0.0012     4.1002     0.4718 H       
  33 H33            0.9862     6.3516     0.6038 H       
  34 H34            3.9535     2.5515    -0.1994 H       
  35 H35           -1.9489     0.7564    -1.7639 H       
  36 H36            5.4837     5.7094    -0.8114 H       
  37 H37           -2.2470     3.1529    -3.2283 H       
  38 H38           -3.5627     2.0110    -2.8633 H       
  39 H39           -3.1626     3.3060    -1.7096 H       
  40 H40            6.9428     5.4724     1.2499 H       
  41 H41            5.6118     4.5027     2.0804 H       
  42 H42            5.7288     2.7638     0.2374 H       
  43 H43            7.0598     3.7335    -0.5931 H       
@<TRIPOS>BOND
   1    1    2 1
   2    1    5 1
   3    1   14 am
   4    2    3 2
   5    3    4 1
   6    3    6 1
   7    4    5 2
   8    5   13 1
   9    6    7 1
  10    6   28 1
  11    7    8 ar
  12    7   12 ar
  13    8    9 ar
  14    8   29 1
  15    9   10 ar
  16    9   23 1
  17   10   11 ar
  18   10   30 1
  19   11   12 ar
  20   11   21 1
  21   12   31 1
  22   13   15 ar
  23   13   19 ar
  24   14   20 am
  25   14   25 2
  26   15   16 ar
  27   15   32 1
  28   16   17 ar
  29   16   33 1
  30   17   18 ar
  31   18   19 ar
  32   18   22 1
  33   19   34 1
  34   20   24 1
  35   20   35 1
  36   22   26 1
  37   22   27 1
  38   22   36 1
  39   24   37 1
  40   24   38 1
  41   24   39 1
  42   26   27 1
  43   26   40 1
  44   26   41 1
  45   27   42 1
  46   27   43 1

#	End of record

