#	Name: ASD07300181
#	Creating user name:	WinNT
#	Creation time:	15. 06. 2019 21:09

#	Modifying user name:	WinNT
#	Modification time:	15. 06. 2019 21:09

#	Program:	/corina/corina34_cracker 3.40 0067  02.08.2006

@<TRIPOS>MOLECULE
ASD07300181
  52   56    0    0    0
SMALL
NO_CHARGES


@<TRIPOS>ATOM
   1 C1             0.7158     1.8296     0.7637 C.ar    
   2 C2             0.9390     0.4569     0.7605 C.ar    
   3 C3             2.1802    -0.0463     1.0816 C.ar    
   4 C4             3.1912     0.8515     1.4052 C.ar    
   5 C5             2.9118     2.2038     1.3918 C.ar    
   6 N6             1.7129     2.6512     1.0794 N.ar    
   7 N7            -0.6049     2.1000     0.4158 N.am    
   8 C8            -0.3682    -0.1884     0.3671 C.3     
   9 C9            -1.3089     0.9820     0.1715 C.2     
  10 O10           -2.4767     0.9218    -0.1501 O.2     
  11 C11           -0.2062    -0.9800    -0.9322 C.3     
  12 C12           -0.8783    -1.0948     1.4892 C.3     
  13 C13           -1.1401     3.3931     0.3306 C.ar    
  14 C14           -0.3397     4.4951     0.6005 C.ar    
  15 C15           -0.8671     5.7683     0.5159 C.ar    
  16 C16           -2.1966     5.9466     0.1613 C.ar    
  17 C17           -2.9970     4.8457    -0.1080 C.ar    
  18 C18           -2.4691     3.5723    -0.0293 C.ar    
  19 O19           -2.7155     7.2006     0.0782 O.3     
  20 C20           -2.4009     7.9475    -1.0048 C.2     
  21 N21           -1.7098     7.5265    -2.0321 N.2     
  22 C22           -1.5792     8.5316    -2.9373 C.ar    
  23 C23           -2.2471     9.6499    -2.4108 C.ar    
  24 N24           -2.7625     9.2499    -1.1898 N.pl3   
  25 C25           -0.9533     8.6277    -4.1822 C.ar    
  26 C26           -0.9967     9.8142    -4.8797 C.ar    
  27 C27           -1.6574    10.9151    -4.3555 C.ar    
  28 C28           -2.2804    10.8367    -3.1269 C.ar    
  29 C29           -3.5477    10.0729    -0.2666 C.3     
  30 C30           -2.6068    10.7893     0.7042 C.3     
  31 H31            2.3632    -1.1106     1.0822 H       
  32 H32            4.1783     0.4973     1.6630 H       
  33 H33            3.6914     2.9082     1.6419 H       
  34 H34            0.5445    -1.7578    -0.7926 H       
  35 H35           -1.1585    -1.4378    -1.1998 H       
  36 H36            0.1108    -0.3081    -1.7298 H       
  37 H37           -1.0331    -0.5037     2.3918 H       
  38 H38           -1.8211    -1.5511     1.1875 H       
  39 H39           -0.1440    -1.8755     1.6878 H       
  40 H40            0.6951     4.3564     0.8768 H       
  41 H41           -0.2448     6.6256     0.7261 H       
  42 H42           -4.0320     4.9850    -0.3833 H       
  43 H43           -3.0908     2.7157    -0.2437 H       
  44 H44           -0.4367     7.7744    -4.5963 H       
  45 H45           -0.5123     9.8882    -5.8421 H       
  46 H46           -1.6841    11.8400    -4.9125 H       
  47 H47           -2.7932    11.6977    -2.7242 H       
  48 H48           -4.1169    10.8107    -0.8320 H       
  49 H49           -4.2329     9.4371     0.2940 H       
  50 H50           -2.0376    10.0515     1.2696 H       
  51 H51           -1.9216    11.4252     0.1435 H       
  52 H52           -3.1910    11.4017     1.3911 H       
@<TRIPOS>BOND
   1    1    2 ar
   2    1    6 ar
   3    1    7 1
   4    2    3 ar
   5    2    8 1
   6    3    4 ar
   7    3   31 1
   8    4    5 ar
   9    4   32 1
  10    5    6 ar
  11    5   33 1
  12    7    9 am
  13    7   13 1
  14    8    9 1
  15    8   11 1
  16    8   12 1
  17    9   10 2
  18   11   34 1
  19   11   35 1
  20   11   36 1
  21   12   37 1
  22   12   38 1
  23   12   39 1
  24   13   14 ar
  25   13   18 ar
  26   14   15 ar
  27   14   40 1
  28   15   16 ar
  29   15   41 1
  30   16   17 ar
  31   16   19 1
  32   17   18 ar
  33   17   42 1
  34   18   43 1
  35   19   20 1
  36   20   21 2
  37   20   24 1
  38   21   22 1
  39   22   23 ar
  40   22   25 ar
  41   23   24 1
  42   23   28 ar
  43   24   29 1
  44   25   26 ar
  45   25   44 1
  46   26   27 ar
  47   26   45 1
  48   27   28 ar
  49   27   46 1
  50   28   47 1
  51   29   30 1
  52   29   48 1
  53   29   49 1
  54   30   50 1
  55   30   51 1
  56   30   52 1

#	End of record

