#	Name: ASD01917593
#	Creating user name:	WinNT
#	Creation time:	15. 06. 2019 20:09

#	Modifying user name:	WinNT
#	Modification time:	15. 06. 2019 20:09

#	Program:	/corina/corina34_cracker 3.40 0067  02.08.2006

@<TRIPOS>MOLECULE
ASD01917593
  29   29    0    0    0
SMALL
NO_CHARGES


@<TRIPOS>ATOM
   1 C1            -0.0284     1.4096    -0.1958 C.2     
   2 C2             0.1594    -0.0792    -0.0563 C.3     
   3 C3             1.6224    -0.3798     0.2754 C.3     
   4 N4             0.9858     2.2126    -0.0335 N.2     
   5 N5            -1.2595     1.9171    -0.4978 N.pl3   
   6 C6            -0.7365    -0.6030     1.0680 C.3     
   7 C7            -0.2172    -0.7661    -1.3705 C.3     
   8 C8             0.8182     3.5635    -0.1733 C.ar    
   9 C9             0.5777     4.3525     0.9541 C.ar    
  10 C10            0.4105     5.7153     0.7963 C.ar    
  11 C11            0.4886     6.2501    -0.4840 C.ar    
  12 C12            0.7292     5.4121    -1.5561 C.ar    
  13 N13            0.8907     4.1155    -1.3794 N.ar    
  14 I14            0.2429     8.3086    -0.7862 I       
  15 O15           -1.4619     3.3184    -0.5190 O.3     
  16 H16            1.8907     0.1096     1.2117 H       
  17 H17            1.7582    -1.4566     0.3764 H       
  18 H18            2.2607    -0.0066    -0.5255 H       
  19 H19           -1.9955     1.3177    -0.6977 H       
  20 H20           -1.7788    -0.3888     0.8317 H       
  21 H21           -0.6007    -1.6798     1.1689 H       
  22 H22           -0.4682    -0.1136     2.0043 H       
  23 H23            0.4211    -0.3929    -2.1714 H       
  24 H24           -0.0814    -1.8429    -1.2695 H       
  25 H25           -1.2595    -0.5519    -1.6068 H       
  26 H26            0.5228     3.9039     1.9350 H       
  27 H27            0.2229     6.3507     1.6492 H       
  28 H28            0.7903     5.8256    -2.5520 H       
  29 H29           -2.3649     3.5821    -0.7429 H       
@<TRIPOS>BOND
   1    1    2 1
   2    1    4 2
   3    1    5 1
   4    2    3 1
   5    2    6 1
   6    2    7 1
   7    3   16 1
   8    3   17 1
   9    3   18 1
  10    4    8 1
  11    5   15 1
  12    5   19 1
  13    6   20 1
  14    6   21 1
  15    6   22 1
  16    7   23 1
  17    7   24 1
  18    7   25 1
  19    8    9 ar
  20    8   13 ar
  21    9   10 ar
  22    9   26 1
  23   10   11 ar
  24   10   27 1
  25   11   12 ar
  26   11   14 1
  27   12   13 ar
  28   12   28 1
  29   15   29 1

#	End of record

