#	Name: ASD01913940
#	Creating user name:	WinNT
#	Creation time:	15. 06. 2019 20:02

#	Modifying user name:	WinNT
#	Modification time:	15. 06. 2019 20:02

#	Program:	/corina/corina34_cracker 3.40 0067  02.08.2006

@<TRIPOS>MOLECULE
ASD01913940
  41   43    0    0    0
SMALL
NO_CHARGES


@<TRIPOS>ATOM
   1 C1            -0.0174     1.4278     0.0119 C.ar    
   2 C2             0.0021    -0.0041     0.0040 C.1     
   3 C3             0.0180    -1.1780    -0.0025 C.1     
   4 C4             0.0374    -2.6098    -0.0104 C.ar    
   5 N5            -1.1062    -3.2936     0.0363 N.ar    
   6 C6             0.1296    -5.2905    -0.0270 C.ar    
   7 N7             1.2699    -4.6126    -0.0798 N.ar    
   8 C8             1.2552    -3.2933    -0.0727 C.ar    
   9 C9            -1.0856    -4.6114     0.0289 C.ar    
  10 C10           -1.2341     2.1130     0.0743 C.ar    
  11 C11           -0.0581     4.1988     0.0283 C.ar    
  12 N12            0.1480    -6.6833    -0.0351 N.am    
  13 C13            1.1798     2.1460    -0.0369 C.ar    
  14 C14           -1.2464     3.4920     0.0821 C.ar    
  15 C15            1.1529     3.5274    -0.0284 C.ar    
  16 C16            0.2689    -7.3456     1.1251 C.2     
  17 N17            0.3047    -8.6848     1.1926 N.am    
  18 C18            0.2000    -9.5109    -0.0113 C.3     
  19 C19            0.7689    -8.7353    -1.2042 C.3     
  20 C20            0.0287    -7.3946    -1.3089 C.3     
  21 C21            0.9953   -10.8032     0.1846 C.3     
  22 C22           -1.2691    -9.8479    -0.2740 C.3     
  23 O23            0.3498    -6.7067     2.1563 O.2     
  24 F24            2.3090     4.2247    -0.0760 F       
  25 H25            2.1830    -2.7421    -0.1155 H       
  26 H26           -2.0118    -5.1656     0.0667 H       
  27 H27           -2.1629     1.5635     0.1160 H       
  28 H28           -0.0742     5.2786     0.0347 H       
  29 H29            2.1238     1.6230    -0.0808 H       
  30 H30           -2.1865     4.0218     0.1258 H       
  31 H31            0.4022    -9.1145     2.0568 H       
  32 H32            1.8335    -8.5584    -1.0517 H       
  33 H33            0.6176    -9.3083    -2.1190 H       
  34 H34           -1.0222    -7.5753    -1.5349 H       
  35 H35            0.4746    -6.7933    -2.1012 H       
  36 H36            0.5937   -11.3513     1.0369 H       
  37 H37            0.9168   -11.4176    -0.7122 H       
  38 H38            2.0421   -10.5612     0.3688 H       
  39 H39           -1.8335    -8.9263    -0.4162 H       
  40 H40           -1.3460   -10.4630    -1.1706 H       
  41 H41           -1.6744   -10.3945     0.5775 H       
@<TRIPOS>BOND
   1    1    2 1
   2    1   13 ar
   3    1   10 ar
   4    2    3 3
   5    3    4 1
   6    4    5 ar
   7    4    8 ar
   8    5    9 ar
   9    6    7 ar
  10    6   12 1
  11    6    9 ar
  12    7    8 ar
  13    8   25 1
  14    9   26 1
  15   10   14 ar
  16   10   27 1
  17   11   14 ar
  18   11   15 ar
  19   11   28 1
  20   12   16 am
  21   12   20 1
  22   13   15 ar
  23   13   29 1
  24   14   30 1
  25   15   24 1
  26   16   17 am
  27   16   23 2
  28   17   18 1
  29   17   31 1
  30   18   19 1
  31   18   21 1
  32   18   22 1
  33   19   20 1
  34   19   32 1
  35   19   33 1
  36   20   34 1
  37   20   35 1
  38   21   36 1
  39   21   37 1
  40   21   38 1
  41   22   39 1
  42   22   40 1
  43   22   41 1

#	End of record

