#	Name: ASD03550007
#	Creating user name:	WinNT
#	Creation time:	15. 06. 2019 20:43

#	Modifying user name:	WinNT
#	Modification time:	15. 06. 2019 20:43

#	Program:	/corina/corina34_cracker 3.40 0067  02.08.2006

@<TRIPOS>MOLECULE
ASD03550007
  40   41    0    0    0
SMALL
NO_CHARGES


@<TRIPOS>ATOM
   1 C1            -0.0184     1.5028     0.0103 C.2     
   2 N2             1.3055    -0.4734    -0.4867 N.3     
   3 C3             0.0021    -0.0041     0.0020 C.3     
   4 C4            -0.2279    -0.5251     1.4221 C.3     
   5 C5            -0.3300    -2.0284     1.3953 C.ar    
   6 C6             0.8066    -2.8010     1.5441 C.ar    
   7 C7             0.7129    -4.1800     1.5194 C.ar    
   8 C8            -0.5173    -4.7863     1.3464 C.ar    
   9 C9            -1.6539    -4.0136     1.1985 C.ar    
  10 C10           -1.5609    -2.6347     1.2275 C.ar    
  11 O11            1.0236     2.1234     0.0037 O.2     
  12 N12           -1.1946     2.1607     0.0195 N.am    
  13 C13           -1.2145     3.6256     0.0275 C.3     
  14 C14           -2.6637     4.1159     0.0371 C.3     
  15 C15           -2.6842     5.6227     0.0453 C.ar    
  16 C16           -2.6992     6.3203    -1.1480 C.ar    
  17 C17           -2.7179     7.7025    -1.1404 C.ar    
  18 C18           -2.7220     8.3871     0.0605 C.ar    
  19 C19           -2.7079     7.6895     1.2539 C.ar    
  20 C20           -2.6936     6.3072     1.2463 C.ar    
  21 H21            2.0536    -0.1430     0.1043 H       
  22 H22            1.3222    -1.4794    -0.5627 H       
  23 H23           -0.7864    -0.3745    -0.6531 H       
  24 H24            0.6068    -0.2288     2.0574 H       
  25 H25           -1.1526    -0.1051     1.8179 H       
  26 H26            1.7677    -2.3274     1.6792 H       
  27 H27            1.6010    -4.7837     1.6349 H       
  28 H28           -0.5903    -5.8636     1.3264 H       
  29 H29           -2.6150    -4.4872     1.0630 H       
  30 H30           -2.4494    -2.0310     1.1156 H       
  31 H31           -2.0280     1.6644     0.0207 H       
  32 H32           -0.7014     3.9910     0.9171 H       
  33 H33           -0.7098     4.0007    -0.8628 H       
  34 H34           -3.1768     3.7505    -0.8525 H       
  35 H35           -3.1683     3.7408     0.9274 H       
  36 H36           -2.6960     5.7855    -2.0862 H       
  37 H37           -2.7290     8.2476    -2.0727 H       
  38 H38           -2.7359     9.4670     0.0665 H       
  39 H39           -2.7108     8.2244     2.1921 H       
  40 H40           -2.6825     5.7622     2.1786 H       
@<TRIPOS>BOND
   1    1    3 1
   2    1   11 2
   3    1   12 am
   4    2    3 1
   5    2   21 1
   6    2   22 1
   7    3    4 1
   8    3   23 1
   9    4    5 1
  10    4   24 1
  11    4   25 1
  12    5    6 ar
  13    5   10 ar
  14    6    7 ar
  15    6   26 1
  16    7    8 ar
  17    7   27 1
  18    8    9 ar
  19    8   28 1
  20    9   10 ar
  21    9   29 1
  22   10   30 1
  23   12   13 1
  24   12   31 1
  25   13   14 1
  26   13   32 1
  27   13   33 1
  28   14   15 1
  29   14   34 1
  30   14   35 1
  31   15   16 ar
  32   15   20 ar
  33   16   17 ar
  34   16   36 1
  35   17   18 ar
  36   17   37 1
  37   18   19 ar
  38   18   38 1
  39   19   20 ar
  40   19   39 1
  41   20   40 1

#	End of record

