#	Name: ASD01903062
#	Creating user name:	WinNT
#	Creation time:	15. 06. 2019 19:54

#	Modifying user name:	WinNT
#	Modification time:	15. 06. 2019 19:54

#	Program:	/corina/corina34_cracker 3.40 0067  02.08.2006

@<TRIPOS>MOLECULE
ASD01903062
  32   34    0    0    0
SMALL
NO_CHARGES


@<TRIPOS>ATOM
   1 C1            -0.0160     1.2944     0.0210 C.2     
   2 N2             0.0004    -0.0032     0.0041 N.2     
   3 C3            -1.1729    -0.6194     0.0269 C.2     
   4 C4            -2.2469     0.1860     0.0652 C.2     
   5 S5            -1.6842     1.8559     0.0783 S.3     
   6 C6            -1.2918    -2.1001     0.0107 C.2     
   7 N7             1.1051     2.1111     0.0028 N.pl3   
   8 C8            -2.2692    -2.8633     0.6776 C.2     
   9 N9            -2.0440    -4.1252     0.4221 N.2     
  10 N10           -0.9227    -4.2168    -0.4115 N.pl3   
  11 C11           -0.4777    -2.9663    -0.6575 C.2     
  12 C12            0.9587     3.4915    -0.0934 C.ar    
  13 N13           -0.2451     4.0127    -0.2730 N.ar    
  14 C14           -0.4275     5.3160    -0.3694 C.ar    
  15 C15            0.6393     6.1882    -0.2860 C.ar    
  16 C16            1.9187     5.6820    -0.0978 C.ar    
  17 C17            2.0779     4.3120     0.0057 C.ar    
  18 C18           -1.8182     5.8593    -0.5736 C.3     
  19 C19           -3.6856    -0.2614     0.0966 C.3     
  20 H20            1.9910     1.7200     0.0572 H       
  21 H21           -3.0663    -2.4738     1.2935 H       
  22 H22           -0.5348    -5.0367    -0.7553 H       
  23 H23            0.3726    -2.7005    -1.2680 H       
  24 H24            0.4805     7.2535    -0.3667 H       
  25 H25            2.7697     6.3435    -0.0293 H       
  26 H26            3.0587     3.8844     0.1524 H       
  27 H27           -2.2805     6.0478     0.3954 H       
  28 H28           -1.7654     6.7902    -1.1382 H       
  29 H29           -2.4146     5.1329    -1.1256 H       
  30 H30           -4.0059    -0.3827     1.1314 H       
  31 H31           -4.3097     0.4871    -0.3916 H       
  32 H32           -3.7819    -1.2124    -0.4274 H       
@<TRIPOS>BOND
   1    1    2 2
   2    1    7 1
   3    1    5 1
   4    2    3 1
   5    3    4 2
   6    3    6 1
   7    4    5 1
   8    4   19 1
   9    6    8 1
  10    6   11 2
  11    7   12 1
  12    7   20 1
  13    8    9 2
  14    8   21 1
  15    9   10 1
  16   10   11 1
  17   10   22 1
  18   11   23 1
  19   12   13 ar
  20   12   17 ar
  21   13   14 ar
  22   14   15 ar
  23   14   18 1
  24   15   16 ar
  25   15   24 1
  26   16   17 ar
  27   16   25 1
  28   17   26 1
  29   18   27 1
  30   18   28 1
  31   18   29 1
  32   19   30 1
  33   19   31 1
  34   19   32 1

#	End of record

