#	Name: ASD00960219
#	Creating user name:	WinNT
#	Creation time:	15. 06. 2019 18:53

#	Modifying user name:	WinNT
#	Modification time:	15. 06. 2019 18:53

#	Program:	/corina/corina34_cracker 3.40 0067  02.08.2006

@<TRIPOS>MOLECULE
ASD00960219
  38   41    0    0    0
SMALL
NO_CHARGES


@<TRIPOS>ATOM
   1 C1             0.1531     1.4608     0.6709 C.2     
   2 C2             0.2336     0.1016     0.9330 C.2     
   3 N3             1.3489     1.8783     0.1517 N.pl3   
   4 C4             2.1953     0.8057     0.0772 C.2     
   5 C5             1.5144    -0.3217     0.5633 C.2     
   6 N6             1.8139     3.1279    -0.2830 N.2     
   7 C7             3.0309     3.2486    -0.7462 C.2     
   8 N8             3.8617     2.2146    -0.8234 N.2     
   9 C9             3.4970     1.0048    -0.4329 C.2     
  10 N10            4.3804    -0.0534    -0.5233 N.pl3   
  11 C11            2.0482    -1.6919     0.6648 C.2     
  12 O12            3.2251    -2.0379     1.2162 O.3     
  13 C13            3.3472    -3.3777     1.1147 C.2     
  14 C14            2.2419    -3.8350     0.5015 C.2     
  15 N15            1.4518    -2.7820     0.2369 N.2     
  16 C16           -1.0171     2.3066     0.9045 C.2     
  17 O17           -2.0333     1.8244     1.3680 O.2     
  18 O18           -0.9695     3.6215     0.6059 O.3     
  19 C19           -2.1488     4.3876     0.8598 C.3     
  20 C20           -1.9096     5.8228     0.4676 C.ar    
  21 C21           -2.1919     6.2442    -0.8183 C.ar    
  22 C22           -1.9725     7.5607    -1.1781 C.ar    
  23 C23           -1.4712     8.4560    -0.2519 C.ar    
  24 C24           -1.1897     8.0349     1.0343 C.ar    
  25 C25           -1.4132     6.7194     1.3954 C.ar    
  26 H26           -0.5491    -0.5168     1.3471 H       
  27 H27            3.3711     4.2188    -1.0767 H       
  28 H28            5.3081     0.1078    -0.7563 H       
  29 H29            4.0730    -0.9576    -0.3538 H       
  30 H30            4.1793    -3.9726     1.4615 H       
  31 H31            2.0258    -4.8668     0.2669 H       
  32 H32           -2.9765     3.9845     0.2762 H       
  33 H33           -2.3936     4.3368     1.9207 H       
  34 H34           -2.5836     5.5447    -1.5420 H       
  35 H35           -2.1924     7.8898    -2.1830 H       
  36 H36           -1.2991     9.4845    -0.5332 H       
  37 H37           -0.7977     8.7343     1.7579 H       
  38 H38           -1.1968     6.3912     2.4013 H       
@<TRIPOS>BOND
   1    1    2 2
   2    1    3 1
   3    1   16 1
   4    2    5 1
   5    2   26 1
   6    3    4 1
   7    3    6 1
   8    4    5 2
   9    4    9 1
  10    5   11 1
  11    6    7 2
  12    7    8 1
  13    7   27 1
  14    8    9 2
  15    9   10 1
  16   10   28 1
  17   10   29 1
  18   11   12 1
  19   11   15 2
  20   12   13 1
  21   13   14 2
  22   13   30 1
  23   14   15 1
  24   14   31 1
  25   16   17 2
  26   16   18 1
  27   18   19 1
  28   19   20 1
  29   19   32 1
  30   19   33 1
  31   20   21 ar
  32   20   25 ar
  33   21   22 ar
  34   21   34 1
  35   22   23 ar
  36   22   35 1
  37   23   24 ar
  38   23   36 1
  39   24   25 ar
  40   24   37 1
  41   25   38 1

#	End of record

