#	Name: ASD05143332
#	Creating user name:	WinNT
#	Creation time:	15. 06. 2019 20:57

#	Modifying user name:	WinNT
#	Modification time:	15. 06. 2019 20:57

#	Program:	/corina/corina34_cracker 3.40 0067  02.08.2006

@<TRIPOS>MOLECULE
ASD05143332
  49   51    0    0    0
SMALL
NO_CHARGES


@<TRIPOS>ATOM
   1 C1            -0.2817     2.1094    -1.0841 C.2     
   2 N2            -0.2153     1.0032    -1.7983 N.2     
   3 S3            -1.7925     0.3712    -1.8157 S.3     
   4 C4            -2.4633     1.6344    -0.8562 C.2     
   5 N5            -1.4580     2.4376    -0.5856 N.2     
   6 N6            -3.7781     1.7717    -0.4516 N.pl3   
   7 C7            -4.1895     2.9360     0.2094 C.ar    
   8 C8            -5.4154     3.5153    -0.0972 C.ar    
   9 C9            -5.8181     4.6652     0.5577 C.ar    
  10 C10            0.8963     0.4727    -2.4025 C.ar    
  11 C11            1.6976     1.2698    -3.2195 C.ar    
  12 C12            1.2354    -0.8706    -2.1973 C.ar    
  13 C13            2.3588    -1.3969    -2.8111 C.ar    
  14 C14            3.1434    -0.5983    -3.6237 C.ar    
  15 C15            2.8149     0.7304    -3.8247 C.ar    
  16 C16            0.9166     2.9459    -0.8460 C.ar    
  17 C17            0.8492     4.3341    -1.0109 C.ar    
  18 C18            2.1159     2.3553    -0.4509 C.ar    
  19 C19            3.2296     3.1398    -0.2299 C.ar    
  20 C20            3.1607     4.5114    -0.3990 C.ar    
  21 C21            1.9753     5.1086    -0.7854 C.ar    
  22 O22            0.4646    -1.6543    -1.3981 O.3     
  23 C23            0.8721    -3.0143    -1.2355 C.3     
  24 O24           -0.3160     4.9197    -1.3910 O.3     
  25 C25           -0.2730     6.3167    -1.6888 C.3     
  26 C26           -5.0031     5.2385     1.5164 C.ar    
  27 C27           -3.7827     4.6655     1.8240 C.ar    
  28 C28           -3.3756     3.5122     1.1779 C.ar    
  29 F29           -2.1833     2.9529     1.4794 F       
  30 F30           -6.2122     2.9561    -1.0341 F       
  31 H31           -4.4157     1.0616    -0.6254 H       
  32 H32           -6.7702     5.1160     0.3198 H       
  33 H33            1.4442     2.3075    -3.3787 H       
  34 H34            2.6233    -2.4323    -2.6552 H       
  35 H35            4.0192    -1.0132    -4.1003 H       
  36 H36            3.4327     1.3471    -4.4607 H       
  37 H37            2.1733     1.2851    -0.3176 H       
  38 H38            4.1583     2.6815     0.0765 H       
  39 H39            4.0364     5.1190    -0.2242 H       
  40 H40            1.9283     6.1797    -0.9156 H       
  41 H41            1.8708    -3.0447    -0.8000 H       
  42 H42            0.1722    -3.5268    -0.5755 H       
  43 H43            0.8840    -3.5087    -2.2068 H       
  44 H44           -1.2503     6.6425    -2.0450 H       
  45 H45           -0.0107     6.8722    -0.7885 H       
  46 H46            0.4747     6.5009    -2.4602 H       
  47 H47           -5.3203     6.1363     2.0261 H       
  48 H48           -3.1486     5.1167     2.5729 H       
  49 Br49           9.1583    11.8722     7.5729 Br      
@<TRIPOS>BOND
   1    1    2 2
   2    1   16 1
   3    1    5 1
   4    2    3 1
   5    2   10 1
   6    3    4 1
   7    4    5 2
   8    4    6 1
   9    6    7 1
  10    6   31 1
  11    7    8 ar
  12    7   28 ar
  13    8    9 ar
  14    8   30 1
  15    9   26 ar
  16    9   32 1
  17   10   11 ar
  18   10   12 ar
  19   11   15 ar
  20   11   33 1
  21   12   13 ar
  22   12   22 1
  23   13   14 ar
  24   13   34 1
  25   14   15 ar
  26   14   35 1
  27   15   36 1
  28   16   17 ar
  29   16   18 ar
  30   17   24 1
  31   17   21 ar
  32   18   19 ar
  33   18   37 1
  34   19   20 ar
  35   19   38 1
  36   20   21 ar
  37   20   39 1
  38   21   40 1
  39   22   23 1
  40   23   41 1
  41   23   42 1
  42   23   43 1
  43   24   25 1
  44   25   44 1
  45   25   45 1
  46   25   46 1
  47   26   27 ar
  48   26   47 1
  49   27   28 ar
  50   27   48 1
  51   28   29 1

#	End of record

