#	Name: ASD01028824
#	Creating user name:	WinNT
#	Creation time:	15. 06. 2019 18:58

#	Modifying user name:	WinNT
#	Modification time:	15. 06. 2019 18:58

#	Program:	/corina/corina34_cracker 3.40 0067  02.08.2006

@<TRIPOS>MOLECULE
ASD01028824
  15   15    0    0    0
SMALL
NO_CHARGES


@<TRIPOS>ATOM
   1 N1            -0.0164     1.3618     0.0095 N.pl3   
   2 N2             0.0021    -0.0041     0.0020 N.3     
   3 C3             1.1795     2.0742     0.0019 C.ar    
   4 C4             1.1534     3.4672     0.0097 C.ar    
   5 C5             2.3506     4.1625     0.0024 C.ar    
   6 C6             3.5371     3.4388    -0.0123 C.ar    
   7 C7             3.4875     2.0588    -0.0193 C.ar    
   8 N8             2.3309     1.4223    -0.0070 N.ar    
   9 F9            -0.0236     4.1302     0.0236 F       
  10 Cl10           5.0659     4.2613    -0.0225 Cl      
  11 H11           -0.8630     1.8353     0.0161 H       
  12 H12            0.5405    -0.3627     0.7764 H       
  13 H13           -0.9349    -0.3784     0.0090 H       
  14 H14            2.3623     5.2424     0.0078 H       
  15 H15            4.4071     1.4926    -0.0311 H       
@<TRIPOS>BOND
   1    1    2 1
   2    1    3 1
   3    1   11 1
   4    2   12 1
   5    2   13 1
   6    3    4 ar
   7    3    8 ar
   8    4    5 ar
   9    4    9 1
  10    5    6 ar
  11    5   14 1
  12    6    7 ar
  13    6   10 1
  14    7    8 ar
  15    7   15 1

#	End of record

