#	Name: ASD01816598
#	Creating user name:	WinNT
#	Creation time:	15. 06. 2019 19:35

#	Modifying user name:	WinNT
#	Modification time:	15. 06. 2019 19:35

#	Program:	/corina/corina34_cracker 3.40 0067  02.08.2006

@<TRIPOS>MOLECULE
ASD01816598
  74   80    0    0    0
SMALL
NO_CHARGES


@<TRIPOS>ATOM
   1 C1            -0.0165     1.3805     0.0442 C.ar    
   2 C2             0.0022    -0.0043     0.0361 C.ar    
   3 C3            -1.1753    -0.7254     0.0320 C.ar    
   4 C4            -2.3995    -0.0671     0.0356 C.ar    
   5 C5            -2.4231     1.3373     0.0438 C.ar    
   6 C6            -1.2279     2.0602     0.0541 C.ar    
   7 N7            -3.5816    -0.7892     0.0306 N.pl3   
   8 C8            -4.7923    -0.2090     0.0336 C.2     
   9 C9            -4.9388     1.1557     0.0421 C.2     
  10 C10           -3.7325     2.0146     0.0475 C.2     
  11 C11           -6.0661     2.0829     0.0482 C.2     
  12 N12           -5.5331     3.3237     0.0566 N.am    
  13 N13           -4.1377     3.2525     0.0559 N.2     
  14 C14           -6.2735     4.5126     0.0637 C.ar    
  15 O15           -7.2520     1.7948     0.0461 O.2     
  16 F16            1.1447     2.0710     0.0481 F       
  17 C17           -6.7310     5.0401     1.2633 C.ar    
  18 C18           -7.4607     6.2133     1.2673 C.ar    
  19 C19           -7.7366     6.8627     0.0784 C.ar    
  20 C20           -7.2830     6.3413    -1.1198 C.ar    
  21 C21           -6.5472     5.1707    -1.1310 C.ar    
  22 N22           -1.2507     3.4560     0.0628 N.3     
  23 C23           -0.5794     3.9861     1.2571 C.3     
  24 C24           -0.6239     5.4922     1.2315 C.ar    
  25 C25           -1.6848     6.1612     1.8138 C.ar    
  26 C26           -1.7283     7.5415     1.7919 C.ar    
  27 C27           -0.7055     8.2574     1.1845 C.ar    
  28 C28            0.3583     7.5829     0.6007 C.ar    
  29 C29            0.3991     6.2026     0.6307 C.ar    
  30 N30           -0.7471     9.6584     1.1603 N.pl3   
  31 N31           -1.7549    10.4629     1.7077 N.2     
  32 C32            0.1813    10.4727     0.6095 C.2     
  33 C33           -0.2272    11.7491     0.7972 C.2     
  34 C34           -1.4435    11.7149     1.4881 C.2     
  35 F35           -6.1042     4.6612    -2.3012 F       
  36 C36           -3.5072    -2.2522     0.0210 C.3     
  37 C37           -4.0784    -2.8003     1.3308 C.3     
  38 C38           -4.3174    -2.7962    -1.1580 C.3     
  39 C39           -4.2090    -4.3240    -1.1851 C.3     
  40 N40           -4.6199    -4.8506     0.1235 N.am    
  41 C41           -3.9673    -4.3282     1.3318 C.3     
  42 S42           -5.7967    -6.0105     0.2346 S.o2    
  43 O43           -6.3492    -5.8262     1.5307 O.2     
  44 O44           -6.5860    -5.8217    -0.9319 O.2     
  45 C45           -4.8938    -7.5813     0.1449 C.3     
  46 H46            0.9480    -0.5257     0.0326 H       
  47 H47           -1.1450    -1.8050     0.0257 H       
  48 H48           -5.6742    -0.8325     0.0290 H       
  49 H49           -6.5170     4.5336     2.1929 H       
  50 H50           -7.8166     6.6236     2.2008 H       
  51 H51           -8.3079     7.7792     0.0851 H       
  52 H52           -7.5002     6.8511    -2.0468 H       
  53 H53           -0.8389     3.8296    -0.7792 H       
  54 H54           -1.0870     3.6227     2.1506 H       
  55 H55            0.4586     3.6534     1.2682 H       
  56 H56           -2.4803     5.6037     2.2858 H       
  57 H57           -2.5574     8.0634     2.2466 H       
  58 H58            1.1552     8.1370     0.1271 H       
  59 H59            1.2266     5.6774     0.1770 H       
  60 H60            1.0866    10.1606     0.1101 H       
  61 H61            0.2947    12.6374     0.4732 H       
  62 H62           -2.0254    12.5739     1.7879 H       
  63 H63           -2.4671    -2.5623    -0.0795 H       
  64 H64           -3.5157    -2.3941     2.1712 H       
  65 H65           -5.1257    -2.5116     1.4200 H       
  66 H66           -5.3624    -2.5075    -1.0453 H       
  67 H67           -3.9247    -2.3870    -2.0888 H       
  68 H68           -4.8624    -4.7230    -1.9611 H       
  69 H69           -3.1780    -4.6137    -1.3882 H       
  70 H70           -2.9166    -4.6182     1.3340 H       
  71 H71           -4.4612    -4.7299     2.2165 H       
  72 H72           -4.1849    -7.6405     0.9707 H       
  73 H73           -5.5989    -8.4099     0.2112 H       
  74 H74           -4.3553    -7.6373    -0.8011 H       
@<TRIPOS>BOND
   1    1    2 ar
   2    1   16 1
   3    1    6 ar
   4    2    3 ar
   5    2   46 1
   6    3    4 ar
   7    3   47 1
   8    4    5 ar
   9    4    7 1
  10    5    6 ar
  11    5   10 1
  12    6   22 1
  13    7    8 1
  14    7   36 1
  15    8    9 2
  16    8   48 1
  17    9   10 1
  18    9   11 1
  19   10   13 2
  20   11   12 am
  21   11   15 2
  22   12   13 1
  23   12   14 1
  24   14   17 ar
  25   14   21 ar
  26   17   18 ar
  27   17   49 1
  28   18   19 ar
  29   18   50 1
  30   19   20 ar
  31   19   51 1
  32   20   21 ar
  33   20   52 1
  34   21   35 1
  35   22   23 1
  36   22   53 1
  37   23   24 1
  38   23   54 1
  39   23   55 1
  40   24   25 ar
  41   24   29 ar
  42   25   26 ar
  43   25   56 1
  44   26   27 ar
  45   26   57 1
  46   27   28 ar
  47   27   30 1
  48   28   29 ar
  49   28   58 1
  50   29   59 1
  51   30   31 1
  52   30   32 1
  53   31   34 2
  54   32   33 2
  55   32   60 1
  56   33   34 1
  57   33   61 1
  58   34   62 1
  59   36   37 1
  60   36   38 1
  61   36   63 1
  62   37   41 1
  63   37   64 1
  64   37   65 1
  65   38   39 1
  66   38   66 1
  67   38   67 1
  68   39   40 1
  69   39   68 1
  70   39   69 1
  71   40   41 1
  72   40   42 am
  73   41   70 1
  74   41   71 1
  75   42   43 2
  76   42   44 2
  77   42   45 1
  78   45   72 1
  79   45   73 1
  80   45   74 1

#	End of record

