#	Name: ASD01885503
#	Creating user name:	WinNT
#	Creation time:	15. 06. 2019 19:49

#	Modifying user name:	WinNT
#	Modification time:	15. 06. 2019 19:49

#	Program:	/corina/corina34_cracker 3.40 0067  02.08.2006

@<TRIPOS>MOLECULE
ASD01885503
  55   58    0    0    0
SMALL
NO_CHARGES


@<TRIPOS>ATOM
   1 C1            -0.0164     1.3561     0.0095 C.ar    
   2 C2             0.0021    -0.0041     0.0020 C.ar    
   3 C3             1.2056    -0.7066    -0.0132 C.ar    
   4 C4             2.3988    -0.0488    -0.0206 C.ar    
   5 C5             2.4185     1.3521    -0.0133 C.ar    
   6 C6             1.1968     2.0713     0.0018 C.ar    
   7 C7             3.6407     2.0708    -0.0210 C.ar    
   8 C8             3.5790     3.4576    -0.0135 C.ar    
   9 C9             2.3316     4.0919     0.0013 C.ar    
  10 N10            1.2052     3.4045     0.0092 N.ar    
  11 C11            4.9419     1.3643    -0.0362 C.ar    
  12 C12            2.2743     5.5736     0.0097 C.2     
  13 O13            3.3022     6.2214     0.0038 O.2     
  14 N14            1.0819     6.2018     0.0240 N.am    
  15 C15           -1.2996    -0.7633     0.0109 C.3     
  16 N16           -1.7364    -1.0026    -1.3712 N.3     
  17 C17           -2.8679    -1.9377    -1.4111 C.3     
  18 C18           -3.3880    -2.0503    -2.8460 C.3     
  19 C19           -2.2599    -2.5458    -3.7551 C.3     
  20 C20           -1.0755    -1.5803    -3.6581 C.3     
  21 C21           -0.6224    -1.4814    -2.1996 C.3     
  22 C22            5.9187     1.7166    -0.9680 C.ar    
  23 C23            7.1291     1.0556    -0.9781 C.ar    
  24 C24            7.3759     0.0429    -0.0646 C.ar    
  25 C25            6.4088    -0.3107     0.8631 C.ar    
  26 C26            5.1974     0.3482     0.8850 C.ar    
  27 F27            8.5629    -0.6020    -0.0788 F       
  28 C28           -4.5528    -3.0413    -2.8908 C.3     
  29 F29           -5.5812    -2.5902    -2.0565 F       
  30 F30           -5.0277    -3.1437    -4.2028 F       
  31 F31           -4.1146    -4.2961    -2.4542 F       
  32 C32            0.0789    -2.1000    -4.5174 C.3     
  33 H33           -0.9577     1.8854     0.0168 H       
  34 H34            1.1924    -1.7865    -0.0189 H       
  35 H35            3.3248    -0.6045    -0.0317 H       
  36 H36            4.4868     4.0426    -0.0187 H       
  37 H37            0.2613     5.6846     0.0287 H       
  38 H38            1.0444     7.1710     0.0295 H       
  39 H39           -1.1600    -1.7179     0.5182 H       
  40 H40           -2.0567    -0.1804     0.5354 H       
  41 H41           -2.5410    -2.9183    -1.0652 H       
  42 H42           -3.6647    -1.5715    -0.7637 H       
  43 H43           -3.7278    -1.0726    -3.1876 H       
  44 H44           -1.9463    -3.5402    -3.4374 H       
  45 H45           -2.6135    -2.5862    -4.7853 H       
  46 H46           -1.3789    -0.5953    -4.0125 H       
  47 H47            0.2117    -0.7837    -2.1250 H       
  48 H48           -0.3061    -2.4641    -1.8501 H       
  49 H49            5.7272     2.5053    -1.6805 H       
  50 H50            7.8857     1.3273    -1.6993 H       
  51 H51            6.6057    -1.1007     1.5726 H       
  52 H52            4.4461     0.0750     1.6112 H       
  53 H53           -0.2454    -2.1736    -5.5554 H       
  54 H54            0.9217    -1.4124    -4.4479 H       
  55 H55            0.3826    -3.0843    -4.1609 H       
@<TRIPOS>BOND
   1    1    2 ar
   2    1    6 ar
   3    1   33 1
   4    2    3 ar
   5    2   15 1
   6    3    4 ar
   7    3   34 1
   8    4    5 ar
   9    4   35 1
  10    5    7 ar
  11    5    6 ar
  12    6   10 ar
  13    7    8 ar
  14    7   11 1
  15    8    9 ar
  16    8   36 1
  17    9   10 ar
  18    9   12 1
  19   11   22 ar
  20   11   26 ar
  21   12   13 2
  22   12   14 am
  23   14   37 1
  24   14   38 1
  25   15   16 1
  26   15   39 1
  27   15   40 1
  28   16   17 1
  29   16   21 1
  30   17   18 1
  31   17   41 1
  32   17   42 1
  33   18   19 1
  34   18   28 1
  35   18   43 1
  36   19   20 1
  37   19   44 1
  38   19   45 1
  39   20   21 1
  40   20   32 1
  41   20   46 1
  42   21   47 1
  43   21   48 1
  44   22   23 ar
  45   22   49 1
  46   23   24 ar
  47   23   50 1
  48   24   25 ar
  49   24   27 1
  50   25   26 ar
  51   25   51 1
  52   26   52 1
  53   28   29 1
  54   28   30 1
  55   28   31 1
  56   32   53 1
  57   32   54 1
  58   32   55 1

#	End of record

