#	Name: ASD01911740
#	Creating user name:	WinNT
#	Creation time:	15. 06. 2019 19:58

#	Modifying user name:	WinNT
#	Modification time:	15. 06. 2019 19:58

#	Program:	/corina/corina34_cracker 3.40 0067  02.08.2006

@<TRIPOS>MOLECULE
ASD01911740
  39   40    0    0    0
SMALL
NO_CHARGES


@<TRIPOS>ATOM
   1 C1            -0.0168     1.3843     0.0097 C.ar    
   2 C2             0.0021    -0.0041     0.0020 C.ar    
   3 C3            -1.1827    -0.7181     0.0095 C.ar    
   4 C4            -2.3923    -0.0561     0.0246 C.ar    
   5 C5            -2.4226     1.3423     0.0329 C.ar    
   6 C6            -1.2240     2.0612     0.0306 C.ar    
   7 O7             1.1513     2.0792     0.0022 O.3     
   8 C8             2.3597     1.3167    -0.0134 C.3     
   9 C9            -3.7111     2.0536     0.0490 C.2     
  10 C10           -5.0014     1.2751     0.0566 C.3     
  11 O11           -3.7343     3.2659     0.0561 O.2     
  12 C12           -6.1654     2.2322     0.0729 C.2     
  13 C13           -7.5762     1.7026     0.0830 C.3     
  14 O14           -5.9676     3.4235     0.0778 O.2     
  15 C15           -8.5073     2.7439     0.7073 C.3     
  16 C16           -8.0230     1.4139    -1.3515 C.3     
  17 C17           -9.4553     0.8763    -1.3412 C.3     
  18 C18          -10.3864     1.9175    -0.7169 C.3     
  19 C19           -9.9397     2.2062     0.7176 C.3     
  20 H20            0.9459    -0.5289    -0.0102 H       
  21 H21           -1.1603    -1.7978     0.0031 H       
  22 H22           -3.3153    -0.6168     0.0297 H       
  23 H23           -1.2398     3.1411     0.0369 H       
  24 H24            2.4013     0.6835     0.8728 H       
  25 H25            2.3843     0.6931    -0.9070 H       
  26 H26            3.2154     1.9920    -0.0179 H       
  27 H27           -5.0554     0.6526    -0.8365 H       
  28 H28           -5.0388     0.6424     0.9433 H       
  29 H29           -7.6151     0.7835     0.6676 H       
  30 H30           -8.1891     2.9496     1.7293 H       
  31 H31           -8.4685     3.6630     0.1227 H       
  32 H32           -7.9841     2.3331    -1.9361 H       
  33 H33           -7.3596     0.6721    -1.7963 H       
  34 H34           -9.7736     0.6706    -2.3633 H       
  35 H35           -9.4942    -0.0429    -0.7566 H       
  36 H36          -10.3475     2.8367    -1.3015 H       
  37 H37          -11.4069     1.5345    -0.7096 H       
  38 H38           -9.9786     1.2871     1.3022 H       
  39 H39          -10.6031     2.9480     1.1624 H       
@<TRIPOS>BOND
   1    1    2 ar
   2    1    7 1
   3    1    6 ar
   4    2    3 ar
   5    2   20 1
   6    3    4 ar
   7    3   21 1
   8    4    5 ar
   9    4   22 1
  10    5    6 ar
  11    5    9 1
  12    6   23 1
  13    7    8 1
  14    8   24 1
  15    8   25 1
  16    8   26 1
  17    9   10 1
  18    9   11 2
  19   10   12 1
  20   10   27 1
  21   10   28 1
  22   12   13 1
  23   12   14 2
  24   13   15 1
  25   13   16 1
  26   13   29 1
  27   15   19 1
  28   15   30 1
  29   15   31 1
  30   16   17 1
  31   16   32 1
  32   16   33 1
  33   17   18 1
  34   17   34 1
  35   17   35 1
  36   18   19 1
  37   18   36 1
  38   18   37 1
  39   19   38 1
  40   19   39 1

#	End of record

