#	Name: ASD02038045
#	Creating user name:	WinNT
#	Creation time:	15. 06. 2019 20:16

#	Modifying user name:	WinNT
#	Modification time:	15. 06. 2019 20:16

#	Program:	/corina/corina34_cracker 3.40 0067  02.08.2006

@<TRIPOS>MOLECULE
ASD02038045
  52   54    0    0    0
SMALL
NO_CHARGES


@<TRIPOS>ATOM
   1 N1            -0.0160     1.4024     0.1113 N.am    
   2 N2             0.8821     3.5178     0.5208 N.am    
   3 C3             0.9849     2.1752     0.5775 C.2     
   4 C4            -0.5163     7.1321     2.2783 C.3     
   5 O5            -1.4541     7.9266     1.5494 O.3     
   6 C6            -2.1298     8.8788     2.2464 C.ar    
   7 C7            -3.0550     9.6854     1.6004 C.ar    
   8 C8            -1.8981     9.0396     3.6043 C.ar    
   9 C9            -2.5845    10.0069     4.3123 C.ar    
  10 C10           -3.5052    10.8176     3.6652 C.ar    
  11 C11           -3.7414    10.6527     2.3084 C.ar    
  12 O12            1.9807     1.6611     1.0492 O.2     
  13 O13           -4.1812    11.7695     4.3623 O.3     
  14 C14            0.1367     0.0120     0.0652 C.ar    
  15 C15            1.9111     4.3737     1.1268 C.3     
  16 C16            1.2325     5.3580     2.0846 C.3     
  17 C17            0.1406     6.1235     1.3337 C.3     
  18 C18           -0.9153     5.1402     0.8235 C.3     
  19 C19           -0.2581     4.1535    -0.1535 C.3     
  20 C20            1.3851    -0.5429    -0.1825 C.ar    
  21 C21            1.5326    -1.9156    -0.2268 C.ar    
  22 C22            0.4387    -2.7368    -0.0253 C.ar    
  23 C23           -0.8061    -2.1871     0.2217 C.ar    
  24 C24           -0.9591    -0.8157     0.2729 C.ar    
  25 C25           -1.9959    -3.0859     0.4403 C.3     
  26 C26            0.6031    -4.2340    -0.0753 C.3     
  27 F27            1.9409    -4.5477    -0.3378 F       
  28 F28            0.2273    -4.7857     1.1541 F       
  29 F29           -0.2064    -4.7584    -1.0887 F       
  30 H30           -0.8438     1.8096    -0.1886 H       
  31 H31            0.2488     7.7775     2.7098 H       
  32 H32           -1.0341     6.5991     3.0758 H       
  33 H33           -3.2385     9.5574     0.5439 H       
  34 H34           -1.1811     8.4084     4.1083 H       
  35 H35           -2.4045    10.1316     5.3699 H       
  36 H36           -4.4580    11.2842     1.8044 H       
  37 H37           -3.7379    12.6286     4.3863 H       
  38 H38            2.6206     3.7571     1.6787 H       
  39 H39            2.4339     4.9256     0.3456 H       
  40 H40            0.7870     4.8094     2.9146 H       
  41 H41            1.9719     6.0612     2.4678 H       
  42 H42            0.5829     6.6520     0.4892 H       
  43 H43           -1.3405     4.5937     1.6653 H       
  44 H44           -1.7046     5.6884     0.3091 H       
  45 H45            0.0860     4.6895    -1.0379 H       
  46 H46           -0.9808     3.3909    -0.4440 H       
  47 H47            2.2398     0.0981    -0.3407 H       
  48 H48            2.5034    -2.3479    -0.4194 H       
  49 H49           -1.9314    -0.3870     0.4662 H       
  50 H50           -2.0880    -3.3149     1.5019 H       
  51 H51           -2.8996    -2.5821     0.0975 H       
  52 H52           -1.8605    -4.0107    -0.1205 H       
@<TRIPOS>BOND
   1    1   14 1
   2    1    3 am
   3    1   30 1
   4    2    3 am
   5    2   15 1
   6    2   19 1
   7    3   12 2
   8    4    5 1
   9    4   17 1
  10    4   31 1
  11    4   32 1
  12    5    6 1
  13    6    7 ar
  14    6    8 ar
  15    7   11 ar
  16    7   33 1
  17    8    9 ar
  18    8   34 1
  19    9   10 ar
  20    9   35 1
  21   10   11 ar
  22   10   13 1
  23   11   36 1
  24   13   37 1
  25   14   20 ar
  26   14   24 ar
  27   15   16 1
  28   15   38 1
  29   15   39 1
  30   16   17 1
  31   16   40 1
  32   16   41 1
  33   17   18 1
  34   17   42 1
  35   18   19 1
  36   18   43 1
  37   18   44 1
  38   19   45 1
  39   19   46 1
  40   20   21 ar
  41   20   47 1
  42   21   22 ar
  43   21   48 1
  44   22   23 ar
  45   22   26 1
  46   23   24 ar
  47   23   25 1
  48   24   49 1
  49   25   50 1
  50   25   51 1
  51   25   52 1
  52   26   27 1
  53   26   28 1
  54   26   29 1

#	End of record

