#	Name: ASD01810131
#	Creating user name:	WinNT
#	Creation time:	15. 06. 2019 19:23

#	Modifying user name:	WinNT
#	Modification time:	15. 06. 2019 19:23

#	Program:	/corina/corina34_cracker 3.40 0067  02.08.2006

@<TRIPOS>MOLECULE
ASD01810131
  34   36    0    0    0
SMALL
NO_CHARGES


@<TRIPOS>ATOM
   1 C1            -0.0167     1.3820     0.0096 C.ar    
   2 C2             0.0021    -0.0041     0.0020 C.ar    
   3 C3             1.1959    -0.6932    -0.0127 C.ar    
   4 C4             2.4016     0.0019    -0.0200 C.ar    
   5 C5             2.3831     1.4075    -0.0128 C.ar    
   6 C6             1.1665     2.0939     0.0022 C.ar    
   7 N7             3.6010    -0.6771    -0.0337 N.pl3   
   8 C8             4.7870    -0.0549    -0.0404 C.2     
   9 C9             4.8957     1.3208    -0.0340 C.2     
  10 C10            3.6667     2.1313    -0.0207 C.2     
  11 O11            3.7091     3.3491    -0.0150 O.2     
  12 C12            6.2161     1.9660    -0.0412 C.2     
  13 O13            6.3092     3.3109    -0.0348 O.3     
  14 O14            7.2244     1.2870    -0.0529 O.2     
  15 C15            3.5775    -2.1419    -0.0409 C.3     
  16 C16            3.5572    -2.6371    -1.4640 C.ar    
  17 C17            4.7449    -2.8833    -2.1272 C.ar    
  18 C18            4.7263    -3.3375    -3.4327 C.ar    
  19 C19            3.5200    -3.5458    -4.0749 C.ar    
  20 C20            2.3324    -3.3004    -3.4114 C.ar    
  21 C21            2.3509    -2.8504    -2.1045 C.ar    
  22 F22            1.1476     3.4448     0.0091 F       
  23 H23           -0.9604     1.9071     0.0170 H       
  24 H24           -0.9295    -0.5505     0.0080 H       
  25 H25            1.1956    -1.7731    -0.0181 H       
  26 H26            5.6884    -0.6497    -0.0508 H       
  27 H27            7.1990     3.6894    -0.0400 H       
  28 H28            4.4660    -2.5220     0.4634 H       
  29 H29            2.6863    -2.4936     0.4789 H       
  30 H30            5.6873    -2.7206    -1.6254 H       
  31 H31            5.6542    -3.5292    -3.9510 H       
  32 H32            3.5055    -3.8999    -5.0950 H       
  33 H33            1.3899    -3.4629    -3.9133 H       
  34 H34            1.4230    -2.6587    -1.5862 H       
@<TRIPOS>BOND
   1    1    2 ar
   2    1    6 ar
   3    1   23 1
   4    2    3 ar
   5    2   24 1
   6    3    4 ar
   7    3   25 1
   8    4    5 ar
   9    4    7 1
  10    5    6 ar
  11    5   10 1
  12    6   22 1
  13    7    8 1
  14    7   15 1
  15    8    9 2
  16    8   26 1
  17    9   10 1
  18    9   12 1
  19   10   11 2
  20   12   13 1
  21   12   14 2
  22   13   27 1
  23   15   16 1
  24   15   28 1
  25   15   29 1
  26   16   17 ar
  27   16   21 ar
  28   17   18 ar
  29   17   30 1
  30   18   19 ar
  31   18   31 1
  32   19   20 ar
  33   19   32 1
  34   20   21 ar
  35   20   33 1
  36   21   34 1

#	End of record

