#	Name: ASD03330808
#	Creating user name:	WinNT
#	Creation time:	15. 06. 2019 20:38

#	Modifying user name:	WinNT
#	Modification time:	15. 06. 2019 20:38

#	Program:	/corina/corina34_cracker 3.40 0067  02.08.2006

@<TRIPOS>MOLECULE
ASD03330808
  50   51    0    0    0
SMALL
NO_CHARGES


@<TRIPOS>ATOM
   1 C1             0.6811     0.9557    -0.1870 C.2     
   2 N2             0.9254    -0.3712    -0.3599 N.pl3   
   3 C3             1.8839     1.5894    -0.2222 C.2     
   4 N4             2.8373     0.6430    -0.4324 N.2     
   5 C5             2.2639    -0.5252    -0.5201 C.2     
   6 Cl6            3.0804    -2.0319    -0.7973 Cl      
   7 C7             2.1120     3.0359    -0.0624 C.2     
   8 O8             1.1703     3.7834     0.1213 O.2     
   9 C9             3.5911     4.9696     0.0394 C.3     
  10 N10            3.3642     3.5310    -0.1196 N.am    
  11 C11            4.8787     5.3535    -0.6431 C.2     
  12 C12           -0.0898    -1.4286    -0.3554 C.3     
  13 C13           -1.2624    -1.0033    -1.2445 C.3     
  14 C14           -2.2644    -0.1954    -0.4261 C.3     
  15 N15           -1.5869     0.6043     0.5963 N.3     
  16 C16           -0.6758     1.5861    -0.0108 C.3     
  17 N17            5.0358     6.5988    -1.1342 N.am    
  18 O18            5.7735     4.5420    -0.7504 O.2     
  19 C19            6.3247     7.0063    -1.6989 C.3     
  20 C20            3.6818     5.3102     1.5282 C.3     
  21 C21            4.7694     4.4551     2.1816 C.3     
  22 C22            4.0299     6.7909     1.6924 C.3     
  23 C23            2.3368     5.0250     2.1995 C.3     
  24 C24           -2.5590     1.2636     1.4786 C.3     
  25 H25            2.7640     5.5196    -0.4094 H       
  26 H26            4.1153     2.9349    -0.2661 H       
  27 H27            0.3437    -2.3514    -0.7410 H       
  28 H28           -0.4442    -1.5891     0.6628 H       
  29 H29           -0.8905    -0.3928    -2.0673 H       
  30 H30           -1.7533    -1.8900    -1.6455 H       
  31 H31           -2.8170     0.4682    -1.0912 H       
  32 H32           -2.9631    -0.8775     0.0584 H       
  33 H33           -0.5916     2.4564     0.6400 H       
  34 H34           -1.0644     1.8921    -0.9821 H       
  35 H35            4.2954     7.2251    -1.1138 H       
  36 H36            6.2607     8.0386    -2.0426 H       
  37 H37            7.0980     6.9250    -0.9350 H       
  38 H38            6.5745     6.3584    -2.5391 H       
  39 H39            5.7276     4.6582     1.7034 H       
  40 H40            4.8340     4.6977     3.2423 H       
  41 H41            4.5214     3.4001     2.0647 H       
  42 H42            3.2310     7.4009     1.2707 H       
  43 H43            4.1432     7.0223     2.7515 H       
  44 H44            4.9635     7.0046     1.1720 H       
  45 H45            2.0888     3.9700     2.0825 H       
  46 H46            2.4014     5.2676     3.2602 H       
  47 H47            1.5620     5.6341     1.7340 H       
  48 H48           -3.1705     0.5091     1.9735 H       
  49 H49           -2.0290     1.8509     2.2285 H       
  50 H50           -3.1986     1.9199     0.8885 H       
@<TRIPOS>BOND
   1    1    2 1
   2    1    3 2
   3    1   16 1
   4    2   12 1
   5    2    5 1
   6    3    4 1
   7    3    7 1
   8    4    5 2
   9    5    6 1
  10    7    8 2
  11    7   10 am
  12    9   10 1
  13    9   11 1
  14    9   20 1
  15    9   25 1
  16   10   26 1
  17   11   18 2
  18   11   17 am
  19   12   13 1
  20   12   27 1
  21   12   28 1
  22   13   14 1
  23   13   29 1
  24   13   30 1
  25   14   15 1
  26   14   31 1
  27   14   32 1
  28   15   16 1
  29   15   24 1
  30   16   33 1
  31   16   34 1
  32   17   19 1
  33   17   35 1
  34   19   36 1
  35   19   37 1
  36   19   38 1
  37   20   21 1
  38   20   22 1
  39   20   23 1
  40   21   39 1
  41   21   40 1
  42   21   41 1
  43   22   42 1
  44   22   43 1
  45   22   44 1
  46   23   45 1
  47   23   46 1
  48   23   47 1
  49   24   48 1
  50   24   49 1
  51   24   50 1

#	End of record

