#	Name: ASD05313183
#	Creating user name:	WinNT
#	Creation time:	15. 06. 2019 20:58

#	Modifying user name:	WinNT
#	Modification time:	15. 06. 2019 20:58

#	Program:	/corina/corina34_cracker 3.40 0067  02.08.2006

@<TRIPOS>MOLECULE
ASD05313183
  37   40    0    0    0
SMALL
NO_CHARGES


@<TRIPOS>ATOM
   1 C1            -0.0732     0.8208     1.0172 C.2     
   2 C2             0.1126    -0.6162     0.5921 C.3     
   3 N3             0.9365     1.7371     1.0433 N.pl3   
   4 N4             1.4566    -0.7161    -0.0080 N.am    
   5 C5             2.5713    -0.0366     0.6691 C.3     
   6 C6             2.3226     1.4765     0.6594 C.3     
   7 N7            -0.9005     2.6477     1.6967 N.2     
   8 N8            -1.1555     1.4157     1.4175 N.2     
   9 C9             0.3773     2.8981     1.4850 C.2     
  10 S10            2.7769     4.5731     1.4244 S.3     
  11 N11            2.6537     6.0717     1.8638 N.2     
  12 N12            1.4490     6.3209     2.1947 N.2     
  13 C13            0.5426     5.3726     2.1310 C.2     
  14 C14            1.0672     4.1848     1.6898 C.2     
  15 C15           -0.9055     5.5670     2.5002 C.3     
  16 C16            1.6574    -1.4114    -1.1450 C.2     
  17 O17            2.7496    -1.4014    -1.6787 O.2     
  18 C18            0.5503    -2.1855    -1.7427 C.ar    
  19 C19            0.3190    -2.1301    -3.1197 C.ar    
  20 C20           -0.7188    -2.8577    -3.6720 C.ar    
  21 C21           -1.5276    -3.6396    -2.8615 C.ar    
  22 C22           -1.3013    -3.6963    -1.4964 C.ar    
  23 C23           -0.2655    -2.9800    -0.9348 C.ar    
  24 F24           -0.9453    -2.8065    -5.0029 F       
  25 Cl25          -2.8295    -4.5506    -3.5606 Cl      
  26 Cl26           1.3314    -1.1500    -4.1338 Cl      
  27 H27            0.0424    -1.2729     1.4592 H       
  28 H28           -0.6446    -0.8875    -0.1436 H       
  29 H29            2.6398    -0.3874     1.6988 H       
  30 H30            3.5024    -0.2557     0.1466 H       
  31 H31            2.5034     1.8688    -0.3413 H       
  32 H32            2.9941     1.9608     1.3684 H       
  33 H33           -1.4661     5.8806     1.6196 H       
  34 H34           -1.3138     4.6287     2.8757 H       
  35 H35           -0.9840     6.3322     3.2724 H       
  36 H36           -1.9354    -4.3067    -0.8704 H       
  37 H37           -0.0886    -3.0296     0.1295 H       
@<TRIPOS>BOND
   1    1    2 1
   2    1    3 1
   3    1    8 2
   4    2    4 1
   5    2   27 1
   6    2   28 1
   7    3    6 1
   8    3    9 1
   9    4    5 1
  10    4   16 am
  11    5    6 1
  12    5   29 1
  13    5   30 1
  14    6   31 1
  15    6   32 1
  16    7    8 1
  17    7    9 2
  18    9   14 1
  19   10   11 1
  20   10   14 1
  21   11   12 2
  22   12   13 1
  23   13   14 2
  24   13   15 1
  25   15   33 1
  26   15   34 1
  27   15   35 1
  28   16   17 2
  29   16   18 1
  30   18   19 ar
  31   18   23 ar
  32   19   20 ar
  33   19   26 1
  34   20   21 ar
  35   20   24 1
  36   21   22 ar
  37   21   25 1
  38   22   23 ar
  39   22   36 1
  40   23   37 1

#	End of record

