#	Name: ASD02039148
#	Creating user name:	WinNT
#	Creation time:	15. 06. 2019 20:17

#	Modifying user name:	WinNT
#	Modification time:	15. 06. 2019 20:17

#	Program:	/corina/corina34_cracker 3.40 0067  02.08.2006

@<TRIPOS>MOLECULE
ASD02039148
  45   48    0    0    0
SMALL
NO_CHARGES


@<TRIPOS>ATOM
   1 N1             0.0189     1.3153    -0.0640 N.2     
   2 C2             0.1307     0.0146    -0.1112 C.2     
   3 N3             1.4497    -0.2738    -0.1078 N.2     
   4 C4             2.0631     0.8831    -0.0582 C.2     
   5 O5             1.1179     1.8277    -0.0331 O.3     
   6 C6             3.5532     1.1064    -0.0334 C.3     
   7 O7             3.8931     2.1537    -0.9443 O.3     
   8 C8             5.1571     2.1501    -1.4451 C.ar    
   9 N9            -0.9132    -0.9013    -0.1565 N.pl3   
  10 C10           -2.2346    -0.4615    -0.0363 C.ar    
  11 C11           -3.2698    -1.2108    -0.5817 C.ar    
  12 C12           -4.5746    -0.7749    -0.4616 C.ar    
  13 C13           -4.8529     0.4065     0.2008 C.ar    
  14 C14           -3.8241     1.1566     0.7460 C.ar    
  15 C15           -2.5156     0.7219     0.6332 C.ar    
  16 C16            5.5185     3.0758    -2.4208 C.ar    
  17 C17            6.7947     3.0872    -2.9394 C.ar    
  18 C18            7.7360     2.1683    -2.4885 C.ar    
  19 C19            7.3750     1.2308    -1.5023 C.ar    
  20 C20            6.0778     1.2325    -0.9797 C.ar    
  21 N21            9.0194     2.1628    -2.9962 N.am    
  22 C22            9.9310     1.2749    -2.5626 C.2     
  23 C23            9.6191     0.3148    -1.5763 C.2     
  24 C24            8.3758     0.2684    -1.0374 C.2     
  25 O25           11.0550     1.2993    -3.0335 O.2     
  26 F26           -4.0990     2.3107     1.3923 F       
  27 C27           -6.2781     0.8790     0.3293 C.3     
  28 C28            3.9867     1.4993     1.3803 C.3     
  29 H29            4.0630     0.1890    -0.3280 H       
  30 H30           -0.7250    -1.8459    -0.2714 H       
  31 H31           -3.0541    -2.1336    -1.0997 H       
  32 H32           -5.3790    -1.3575    -0.8860 H       
  33 H33           -1.7131     1.3063     1.0585 H       
  34 H34            4.7910     3.7913    -2.7746 H       
  35 H35            7.0639     3.8093    -3.6960 H       
  36 H36            5.7958     0.5157    -0.2227 H       
  37 H37            9.2672     2.8089    -3.6760 H       
  38 H38           10.3737    -0.3852    -1.2494 H       
  39 H39            8.1290    -0.4626    -0.2817 H       
  40 H40           -6.7134     0.4760     1.2438 H       
  41 H41           -6.2977     1.9682     0.3669 H       
  42 H42           -6.8539     0.5347    -0.5297 H       
  43 H43            3.4769     2.4166     1.6748 H       
  44 H44            3.7274     0.7004     2.0750 H       
  45 H45            5.0645     1.6608     1.3982 H       
@<TRIPOS>BOND
   1    1    2 2
   2    1    5 1
   3    2    3 1
   4    2    9 1
   5    3    4 2
   6    4    5 1
   7    4    6 1
   8    6    7 1
   9    6   28 1
  10    6   29 1
  11    7    8 1
  12    8   16 ar
  13    8   20 ar
  14    9   10 1
  15    9   30 1
  16   10   11 ar
  17   10   15 ar
  18   11   12 ar
  19   11   31 1
  20   12   13 ar
  21   12   32 1
  22   13   14 ar
  23   13   27 1
  24   14   15 ar
  25   14   26 1
  26   15   33 1
  27   16   17 ar
  28   16   34 1
  29   17   18 ar
  30   17   35 1
  31   18   19 ar
  32   18   21 1
  33   19   20 ar
  34   19   24 1
  35   20   36 1
  36   21   22 am
  37   21   37 1
  38   22   23 1
  39   22   25 2
  40   23   24 2
  41   23   38 1
  42   24   39 1
  43   27   40 1
  44   27   41 1
  45   27   42 1
  46   28   43 1
  47   28   44 1
  48   28   45 1

#	End of record

