#	Name: ASD01913477
#	Creating user name:	WinNT
#	Creation time:	15. 06. 2019 20:01

#	Modifying user name:	WinNT
#	Modification time:	15. 06. 2019 20:01

#	Program:	/corina/corina34_cracker 3.40 0067  02.08.2006

@<TRIPOS>MOLECULE
ASD01913477
  34   36    0    0    0
SMALL
NO_CHARGES


@<TRIPOS>ATOM
   1 C1            -0.8085     1.3617    -0.9778 C.ar    
   2 C2            -0.8246    -0.0294    -0.9815 C.ar    
   3 C3            -0.3696    -0.6908    -2.1177 C.ar    
   4 N4             0.0590     0.0214    -3.1467 N.ar    
   5 C5             0.0585     1.3386    -3.1048 C.ar    
   6 N6            -0.3644     2.0014    -2.0471 N.ar    
   7 C7            -1.2494    -2.0816     0.0362 C.ar    
   8 C8            -0.0533    -2.7713     0.1774 C.ar    
   9 N9            -0.0222    -4.0882     0.1245 N.ar    
  10 C10           -1.1137    -4.8027    -0.0623 C.ar    
  11 C11           -2.3501    -4.1867    -0.2120 C.ar    
  12 C12           -2.4242    -2.7980    -0.1626 C.ar    
  13 N13           -3.5041    -4.9517    -0.4104 N.am    
  14 C14           -4.6750    -4.5573     0.1281 C.2     
  15 O15           -1.2727    -0.7242     0.0971 O.3     
  16 C16           -5.8684    -5.4224     0.0165 C.ar    
  17 C17           -7.0823    -5.0167     0.5732 C.ar    
  18 C18           -8.1934    -5.8279     0.4663 C.ar    
  19 C19           -8.1072    -7.0417    -0.1909 C.ar    
  20 C20           -6.9053    -7.4519    -0.7460 C.ar    
  21 C21           -5.7873    -6.6456    -0.6509 C.ar    
  22 O22           -4.7495    -3.4902     0.7056 O.2     
  23 F23           -6.8283    -8.6391    -1.3862 F       
  24 H24           -1.1578     1.9113    -0.1162 H       
  25 H25           -0.3660    -1.7700    -2.1589 H       
  26 H26            0.4150     1.8908    -3.9618 H       
  27 H27            0.8637    -2.2221     0.3321 H       
  28 H28           -1.0463    -5.8800    -0.0999 H       
  29 H29           -3.3704    -2.2897    -0.2752 H       
  30 H30           -3.4617    -5.7661    -0.9356 H       
  31 H31           -7.1518    -4.0694     1.0872 H       
  32 H32           -9.1327    -5.5143     0.8973 H       
  33 H33           -8.9800    -7.6727    -0.2717 H       
  34 H34           -4.8508    -6.9653    -1.0835 H       
@<TRIPOS>BOND
   1    1    2 ar
   2    1    6 ar
   3    1   24 1
   4    2    3 ar
   5    2   15 1
   6    3    4 ar
   7    3   25 1
   8    4    5 ar
   9    5    6 ar
  10    5   26 1
  11    7    8 ar
  12    7   12 ar
  13    7   15 1
  14    8    9 ar
  15    8   27 1
  16    9   10 ar
  17   10   11 ar
  18   10   28 1
  19   11   12 ar
  20   11   13 1
  21   12   29 1
  22   13   14 am
  23   13   30 1
  24   14   16 1
  25   14   22 2
  26   16   17 ar
  27   16   21 ar
  28   17   18 ar
  29   17   31 1
  30   18   19 ar
  31   18   32 1
  32   19   20 ar
  33   19   33 1
  34   20   21 ar
  35   20   23 1
  36   21   34 1

#	End of record

