#	Name: ASD08070686
#	Creating user name:	WinNT
#	Creation time:	15. 06. 2019 21:15

#	Modifying user name:	WinNT
#	Modification time:	15. 06. 2019 21:15

#	Program:	/corina/corina34_cracker 3.40 0067  02.08.2006

@<TRIPOS>MOLECULE
ASD08070686
  39   39    0    0    0
SMALL
NO_CHARGES


@<TRIPOS>ATOM
   1 C1            -0.0180     1.4734     0.0101 C.2     
   2 C2             0.0021    -0.0041     0.0020 C.ar    
   3 C3            -1.1937    -0.7325     0.0095 C.ar    
   4 C4            -1.1203    -2.1140     0.0009 C.ar    
   5 C5             0.1200    -2.7269    -0.0147 C.ar    
   6 N6             1.2313    -2.0163    -0.0210 N.ar    
   7 C7             1.2144    -0.6981    -0.0192 C.ar    
   8 O8             1.0264     2.0954     0.0035 O.2     
   9 N9            -1.1942     2.1313     0.0193 N.am    
  10 C10            0.2027    -4.2316    -0.0241 C.3     
  11 C11           -3.9170     4.1895    -2.6499 C.3     
  12 C12           -2.6000     3.6940    -2.0492 C.3     
  13 C13           -2.5311     4.0916    -0.5733 C.3     
  14 C14           -1.2141     3.5961     0.0274 C.3     
  15 C15           -1.0884     4.1000     1.4665 C.3     
  16 C16            0.2816     3.7107     2.0254 C.3     
  17 C17            0.4072     4.2145     3.4646 C.3     
  18 Cl18           2.7105     0.1823    -0.0355 Cl      
  19 H19           -2.1489    -0.2287     0.0221 H       
  20 H20           -2.0222    -2.7081     0.0067 H       
  21 H21           -2.0276     1.6349     0.0206 H       
  22 H22            0.2126    -4.5885    -1.0539 H       
  23 H23            1.1163    -4.5484     0.4791 H       
  24 H24           -0.6609    -4.6462     0.4958 H       
  25 H25           -3.9661     3.9062    -3.7013 H       
  26 H26           -4.7528     3.7405    -2.1132 H       
  27 H27           -3.9704     5.2747    -2.5631 H       
  28 H28           -2.5466     2.6088    -2.1359 H       
  29 H29           -1.7642     4.1430    -2.5858 H       
  30 H30           -2.5845     5.1769    -0.4866 H       
  31 H31           -3.3669     3.6427    -0.0367 H       
  32 H32           -0.3801     3.9741    -0.5640 H       
  33 H33           -1.1922     5.1849     1.4820 H       
  34 H34           -1.8712     3.6513     2.0782 H       
  35 H35            0.3854     2.6258     2.0099 H       
  36 H36            1.0643     4.1593     1.4138 H       
  37 H37            0.3034     5.2995     3.4801 H       
  38 H38           -0.3756     3.7659     4.0763 H       
  39 H39            1.3832     3.9372     3.8628 H       
@<TRIPOS>BOND
   1    1    2 1
   2    1    8 2
   3    1    9 am
   4    2    3 ar
   5    2    7 ar
   6    3    4 ar
   7    3   19 1
   8    4    5 ar
   9    4   20 1
  10    5    6 ar
  11    5   10 1
  12    6    7 ar
  13    7   18 1
  14    9   14 1
  15    9   21 1
  16   10   22 1
  17   10   23 1
  18   10   24 1
  19   11   12 1
  20   11   25 1
  21   11   26 1
  22   11   27 1
  23   12   13 1
  24   12   28 1
  25   12   29 1
  26   13   14 1
  27   13   30 1
  28   13   31 1
  29   14   15 1
  30   14   32 1
  31   15   16 1
  32   15   33 1
  33   15   34 1
  34   16   17 1
  35   16   35 1
  36   16   36 1
  37   17   37 1
  38   17   38 1
  39   17   39 1

#	End of record

