#	Name: ASD06020174
#	Creating user name:	WinNT
#	Creation time:	15. 06. 2019 21:04

#	Modifying user name:	WinNT
#	Modification time:	15. 06. 2019 21:04

#	Program:	/corina/corina34_cracker 3.40 0067  02.08.2006

@<TRIPOS>MOLECULE
ASD06020174
  25   27    0    0    0
SMALL
NO_CHARGES


@<TRIPOS>ATOM
   1 C1             1.1846     1.1298     0.4601 C.ar    
   2 C2             0.6969    -0.1529     0.2327 C.ar    
   3 C3            -0.2110    -0.3732    -0.8130 C.ar    
   4 C4            -0.5828     0.7519    -1.5900 C.ar    
   5 C5            -0.0536     1.9727    -1.2940 C.ar    
   6 N6             0.8006     2.1355    -0.2974 N.ar    
   7 S7             0.9950    -1.6891     1.0385 S.3     
   8 C8            -0.1043    -2.4966    -0.0720 C.2     
   9 N9            -0.5939    -1.6470    -0.9143 N.2     
  10 F10           -1.4529     0.6159    -2.6144 F       
  11 C11           -0.4227    -3.9398    -0.0459 C.ar    
  12 C12            0.5988    -4.8866    -0.1655 C.ar    
  13 C13            0.2927    -6.2343    -0.1396 C.ar    
  14 C14           -1.0200    -6.6450     0.0041 C.ar    
  15 C15           -2.0349    -5.7120     0.1224 C.ar    
  16 C16           -1.7436    -4.3636     0.1041 C.ar    
  17 N17           -2.8311    -3.3683     0.2370 N.pl3   
  18 O18           -3.9929    -3.7337     0.2504 O.2     
  19 O19           -2.5641    -2.1838     0.3330 O.2     
  20 F20            1.8813    -4.4856    -0.3063 F       
  21 H21            1.8805     1.3029     1.2677 H       
  22 H22           -0.3389     2.8283    -1.8880 H       
  23 H23            1.0800    -6.9678    -0.2321 H       
  24 H24           -1.2541    -7.6992     0.0238 H       
  25 H25           -3.0577    -6.0403     0.2337 H       
@<TRIPOS>BOND
   1    1    2 ar
   2    1    6 ar
   3    1   21 1
   4    2    3 ar
   5    2    7 1
   6    3    4 ar
   7    3    9 1
   8    4    5 ar
   9    4   10 1
  10    5    6 ar
  11    5   22 1
  12    7    8 1
  13    8    9 2
  14    8   11 1
  15   11   12 ar
  16   11   16 ar
  17   12   13 ar
  18   12   20 1
  19   13   14 ar
  20   13   23 1
  21   14   15 ar
  22   14   24 1
  23   15   16 ar
  24   15   25 1
  25   16   17 1
  26   17   18 2
  27   17   19 2

#	End of record

