#	Name: ASD07301564
#	Creating user name:	WinNT
#	Creation time:	15. 06. 2019 21:11

#	Modifying user name:	WinNT
#	Modification time:	15. 06. 2019 21:11

#	Program:	/corina/corina34_cracker 3.40 0067  02.08.2006

@<TRIPOS>MOLECULE
ASD07301564
  32   34    0    0    0
SMALL
NO_CHARGES


@<TRIPOS>ATOM
   1 C1            -0.0169     1.3941     0.0097 C.ar    
   2 C2             0.0021    -0.0041     0.0020 C.ar    
   3 C3             1.2199    -0.6674    -0.0136 C.ar    
   4 C4             2.3808     0.0923    -0.0210 C.ar    
   5 C5             2.2878     1.4713    -0.0127 C.ar    
   6 N6             1.1161     2.0768     0.0026 N.ar    
   7 C7            -2.1139     0.6622     0.0347 C.2     
   8 N8            -1.3542     1.7734     0.0301 N.am    
   9 N9            -1.3234    -0.4279     0.0129 N.am    
  10 O10           -3.3304     0.6453     0.0517 O.2     
  11 C11           -1.8317     3.0925     0.0437 C.ar    
  12 C12           -3.1983     3.3361     0.0638 C.ar    
  13 C13           -3.6677     4.6347     0.0777 C.ar    
  14 C14           -2.7741     5.6957     0.0715 C.ar    
  15 C15           -1.4084     5.4528     0.0509 C.ar    
  16 C16           -0.9378     4.1546     0.0429 C.ar    
  17 O17           -3.2368     6.9741     0.0851 O.3     
  18 C18           -1.7801    -1.8199     0.0099 C.3     
  19 C19           -1.9248    -2.3122     1.4513 C.3     
  20 H20            1.2635    -1.7465    -0.0195 H       
  21 H21            3.3475    -0.3890    -0.0328 H       
  22 H22            3.1908     2.0638    -0.0181 H       
  23 H23           -3.8941     2.5102     0.0683 H       
  24 H24           -4.7308     4.8243     0.0929 H       
  25 H25           -0.7131     6.2792     0.0454 H       
  26 H26            0.1255     3.9656     0.0317 H       
  27 H27           -3.3586     7.3389     0.9724 H       
  28 H28           -2.7440    -1.8851    -0.4947 H       
  29 H29           -1.0528    -2.4398    -0.5144 H       
  30 H30           -2.2645    -3.3479     1.4492 H       
  31 H31           -0.9608    -2.2471     1.9560 H       
  32 H32           -2.6520    -1.6924     1.9757 H       
@<TRIPOS>BOND
   1    1    2 ar
   2    1    6 ar
   3    1    8 1
   4    2    3 ar
   5    2    9 1
   6    3    4 ar
   7    3   20 1
   8    4    5 ar
   9    4   21 1
  10    5    6 ar
  11    5   22 1
  12    7    8 am
  13    7    9 am
  14    7   10 2
  15    8   11 1
  16    9   18 1
  17   11   12 ar
  18   11   16 ar
  19   12   13 ar
  20   12   23 1
  21   13   14 ar
  22   13   24 1
  23   14   15 ar
  24   14   17 1
  25   15   16 ar
  26   15   25 1
  27   16   26 1
  28   17   27 1
  29   18   19 1
  30   18   28 1
  31   18   29 1
  32   19   30 1
  33   19   31 1
  34   19   32 1

#	End of record

