#	Name: ASD06660094
#	Creating user name:	WinNT
#	Creation time:	15. 06. 2019 21:08

#	Modifying user name:	WinNT
#	Modification time:	15. 06. 2019 21:08

#	Program:	/corina/corina34_cracker 3.40 0067  02.08.2006

@<TRIPOS>MOLECULE
ASD06660094
  77   81    0    0    0
SMALL
NO_CHARGES


@<TRIPOS>ATOM
   1 C1             0.2653     1.9442     1.0560 C.2     
   2 C2             0.0298     0.5506     0.5330 C.3     
   3 C3            -1.1089     0.5750    -0.4887 C.3     
   4 O4             1.3426     2.4709     0.9081 O.2     
   5 O5            -0.7234     2.6025     1.6812 O.3     
   6 C6             2.2762    -0.3865     0.6457 C.2     
   7 C7             3.5409    -0.7992     0.0036 C.ar    
   8 C8             3.7825    -2.1482    -0.2658 C.ar    
   9 C9             4.9639    -2.5277    -0.8655 C.ar    
  10 C10            5.9121    -1.5730    -1.2009 C.ar    
  11 C11            5.6774    -0.2326    -0.9358 C.ar    
  12 C12            4.4965     0.1586    -0.3416 C.ar    
  13 O13            2.1602    -0.4467     1.8543 O.2     
  14 N14            1.2508     0.0568    -0.1084 N.am    
  15 C15            4.2401     1.6166    -0.0597 C.3     
  16 F16            7.0689    -1.9504    -1.7878 F       
  17 C17            2.7535    -3.1870     0.0991 C.3     
  18 C18            1.7389    -3.3213    -1.0382 C.3     
  19 C19           -1.4327    -0.8341    -0.9136 C.ar    
  20 C20           -2.3542    -1.5761    -0.1977 C.ar    
  21 C21           -2.6533    -2.8677    -0.5844 C.ar    
  22 C22           -2.0273    -3.4214    -1.6940 C.ar    
  23 C23           -1.1021    -2.6733    -2.4109 C.ar    
  24 C24           -0.8118    -1.3803    -2.0220 C.ar    
  25 N25           -2.3271    -4.7275    -2.0876 N.3     
  26 C26           -1.5556    -5.1087    -3.2776 C.3     
  27 C27           -2.0138    -6.4852    -3.7648 C.3     
  28 C28           -1.8055    -7.5119    -2.6481 C.3     
  29 C29           -2.5804    -7.0664    -1.4048 C.3     
  30 C30           -2.1058    -5.6730    -0.9860 C.3     
  31 C31           -2.3180    -8.8783    -3.1076 C.3     
  32 N32           -2.0107    -9.8835    -2.0872 N.pl3   
  33 C33           -2.3789   -11.1982    -2.2815 C.2     
  34 N34           -3.0315   -11.6755    -3.3819 N.pl3   
  35 C35           -3.2153   -13.0355    -3.1927 C.ar    
  36 C36           -2.6473   -13.3363    -1.9434 C.ar    
  37 N37           -2.1498   -12.1758    -1.4406 N.2     
  38 C38           -2.6796   -14.6506    -1.4720 C.ar    
  39 C39           -3.2661   -15.6364    -2.2342 C.ar    
  40 C40           -3.8248   -15.3342    -3.4668 C.ar    
  41 C41           -3.8018   -14.0403    -3.9463 C.ar    
  42 H42           -0.2379    -0.1073     1.3598 H       
  43 H43           -1.9910     1.0306    -0.0388 H       
  44 H44           -0.8038     1.1560    -1.3590 H       
  45 H45           -0.5248     3.4938     1.9992 H       
  46 H46            5.1518    -3.5706    -1.0742 H       
  47 H47            6.4191     0.5069    -1.1992 H       
  48 H48            1.3214     0.0490    -1.0758 H       
  49 H49            4.6145     1.8660     0.9331 H       
  50 H50            4.7515     2.2261    -0.8046 H       
  51 H51            3.1687     1.8122    -0.1036 H       
  52 H52            3.2465    -4.1455     0.2614 H       
  53 H53            2.2390    -2.8840     1.0111 H       
  54 H54            2.2357    -3.7190    -1.9232 H       
  55 H55            0.9405    -3.9984    -0.7347 H       
  56 H56            1.3178    -2.3423    -1.2670 H       
  57 H57           -2.8403    -1.1451     0.6651 H       
  58 H58           -3.3728    -3.4467    -0.0246 H       
  59 H59           -0.6136    -3.1008    -3.2741 H       
  60 H60           -0.0961    -0.7964    -2.5818 H       
  61 H61           -1.7159    -4.3727    -4.0654 H       
  62 H62           -0.4956    -5.1467    -3.0264 H       
  63 H63           -3.0705    -6.4445    -4.0292 H       
  64 H64           -1.4303    -6.7747    -4.6388 H       
  65 H65           -0.7440    -7.5811    -2.4103 H       
  66 H66           -3.6460    -7.0348    -1.6321 H       
  67 H67           -2.4017    -7.7711    -0.5927 H       
  68 H68           -1.0432    -5.7083    -0.7456 H       
  69 H69           -2.6656    -5.3469    -0.1095 H       
  70 H70           -3.3967    -8.8303    -3.2570 H       
  71 H71           -1.8332    -9.1518    -4.0448 H       
  72 H72           -1.5481    -9.6244    -1.2749 H       
  73 H73           -3.3142   -11.1585    -4.1524 H       
  74 H74           -2.2457   -14.8931    -0.5132 H       
  75 H75           -3.2908   -16.6526    -1.8693 H       
  76 H76           -4.2815   -16.1163    -4.0551 H       
  77 H77           -4.2388   -13.8113    -4.9070 H       
@<TRIPOS>BOND
   1    1    2 1
   2    1    4 2
   3    1    5 1
   4    2    3 1
   5    2   14 1
   6    2   42 1
   7    3   19 1
   8    3   43 1
   9    3   44 1
  10    5   45 1
  11    6    7 1
  12    6   13 2
  13    6   14 am
  14    7    8 ar
  15    7   12 ar
  16    8    9 ar
  17    8   17 1
  18    9   10 ar
  19    9   46 1
  20   10   11 ar
  21   10   16 1
  22   11   12 ar
  23   11   47 1
  24   12   15 1
  25   14   48 1
  26   15   49 1
  27   15   50 1
  28   15   51 1
  29   17   18 1
  30   17   52 1
  31   17   53 1
  32   18   54 1
  33   18   55 1
  34   18   56 1
  35   19   20 ar
  36   19   24 ar
  37   20   21 ar
  38   20   57 1
  39   21   22 ar
  40   21   58 1
  41   22   23 ar
  42   22   25 1
  43   23   24 ar
  44   23   59 1
  45   24   60 1
  46   25   26 1
  47   25   30 1
  48   26   27 1
  49   26   61 1
  50   26   62 1
  51   27   28 1
  52   27   63 1
  53   27   64 1
  54   28   29 1
  55   28   31 1
  56   28   65 1
  57   29   30 1
  58   29   66 1
  59   29   67 1
  60   30   68 1
  61   30   69 1
  62   31   32 1
  63   31   70 1
  64   31   71 1
  65   32   33 1
  66   32   72 1
  67   33   34 1
  68   33   37 2
  69   34   35 1
  70   34   73 1
  71   35   36 ar
  72   35   41 ar
  73   36   37 1
  74   36   38 ar
  75   38   39 ar
  76   38   74 1
  77   39   40 ar
  78   39   75 1
  79   40   41 ar
  80   40   76 1
  81   41   77 1

#	End of record

