#	Name: ASD01812825
#	Creating user name:	WinNT
#	Creation time:	15. 06. 2019 19:29

#	Modifying user name:	WinNT
#	Modification time:	15. 06. 2019 19:29

#	Program:	/corina/corina34_cracker 3.40 0067  02.08.2006

@<TRIPOS>MOLECULE
ASD01812825
  62   67    0    0    0
SMALL
NO_CHARGES


@<TRIPOS>ATOM
   1 N1            -0.0158     1.3147     0.0093 N.ar    
   2 C2             0.0021    -0.0041     0.0020 C.ar    
   3 C3             1.1989    -0.7033    -0.0127 C.ar    
   4 C4             2.3829    -0.0013    -0.0202 C.ar    
   5 C5             2.3448     1.3978    -0.0128 C.ar    
   6 C6             1.0955     2.0332     0.0025 C.ar    
   7 C7             3.8373    -0.3889    -0.0363 C.3     
   8 N8             4.5955     0.8684    -0.0373 N.am    
   9 C9             3.7280     1.8961    -0.0237 C.2     
  10 C10            6.0558     0.9844    -0.0504 C.3     
  11 C11            6.5432     1.0311    -1.4757 C.ar    
  12 C12            6.6712     2.2479    -2.1207 C.ar    
  13 C13            7.1172     2.2963    -3.4260 C.ar    
  14 C14            7.4390     1.1168    -4.0936 C.ar    
  15 C15            7.3088    -0.1059    -3.4392 C.ar    
  16 C16            6.8664    -0.1426    -2.1322 C.ar    
  17 O17            1.0255     3.3856     0.0100 O.3     
  18 O18            4.0429     3.0706    -0.0212 O.2     
  19 C19            7.9188     1.1628    -5.4980 C.2     
  20 C20            8.2618     0.0902    -6.2683 C.2     
  21 C21            8.0967     2.3211    -6.2793 C.2     
  22 N22            8.5298     1.9543    -7.4563 N.2     
  23 N23            8.6369     0.5584    -7.4757 N.pl3   
  24 C24            9.0841    -0.2530    -8.6105 C.3     
  25 C25           -0.2795     3.9677     0.0251 C.3     
  26 C26           -0.7313     4.2074     1.4509 C.ar    
  27 C27           -0.5793     5.5445     1.7664 C.ar    
  28 C28           -0.0174     6.2941     0.5793 C.3     
  29 C29           -0.2503     5.3644    -0.6308 C.3     
  30 N30           -1.2106     3.3612     2.3473 N.ar    
  31 C31           -1.5575     3.7480     3.5577 C.ar    
  32 C32           -1.4316     5.0695     3.9416 C.ar    
  33 C33           -0.9338     5.9890     3.0315 C.ar    
  34 C34            0.9039     5.4722    -1.6295 C.3     
  35 C35           -1.5871     5.6759    -1.3066 C.3     
  36 H36           -0.9309    -0.5480     0.0080 H       
  37 H37            1.2023    -1.7833    -0.0178 H       
  38 H38            4.0797    -0.9721     0.8522 H       
  39 H39            4.0624    -0.9631    -0.9351 H       
  40 H40            6.3524     1.8979     0.4651 H       
  41 H41            6.4932     0.1235     0.4552 H       
  42 H42            6.4214     3.1618    -1.6022 H       
  43 H43            7.2161     3.2469    -3.9290 H       
  44 H44            7.5569    -1.0233    -3.9522 H       
  45 H45            6.7686    -1.0898    -1.6226 H       
  46 H46            8.2376    -0.9462    -5.9655 H       
  47 H47            7.9081     3.3358    -5.9610 H       
  48 H48            8.2245    -0.5277    -9.2219 H       
  49 H49            9.7892     0.3207    -9.2119 H       
  50 H50            9.5713    -1.1558    -8.2421 H       
  51 H51           -0.9876     3.3202    -0.4921 H       
  52 H52           -0.5484     7.2359     0.4407 H       
  53 H53            1.0484     6.4763     0.7169 H       
  54 H54           -1.9446     3.0235     4.2588 H       
  55 H55           -1.7170     5.3813     4.9354 H       
  56 H56           -0.8237     7.0288     3.3019 H       
  57 H57            0.7810     4.7206    -2.4093 H       
  58 H58            0.9039     6.4653    -2.0788 H       
  59 H59            1.8488     5.3076    -1.1118 H       
  60 H60           -2.3839     5.6537    -0.5632 H       
  61 H61           -1.5423     6.6653    -1.7618 H       
  62 H62           -1.7875     4.9306    -2.0764 H       
@<TRIPOS>BOND
   1    1    2 ar
   2    1    6 ar
   3    2    3 ar
   4    2   36 1
   5    3    4 ar
   6    3   37 1
   7    4    7 1
   8    4    5 ar
   9    5    6 ar
  10    5    9 1
  11    6   17 1
  12    7    8 1
  13    7   38 1
  14    7   39 1
  15    8    9 am
  16    8   10 1
  17    9   18 2
  18   10   11 1
  19   10   40 1
  20   10   41 1
  21   11   12 ar
  22   11   16 ar
  23   12   13 ar
  24   12   42 1
  25   13   14 ar
  26   13   43 1
  27   14   15 ar
  28   14   19 1
  29   15   16 ar
  30   15   44 1
  31   16   45 1
  32   17   25 1
  33   19   21 1
  34   19   20 2
  35   20   23 1
  36   20   46 1
  37   21   22 2
  38   21   47 1
  39   22   23 1
  40   23   24 1
  41   24   48 1
  42   24   49 1
  43   24   50 1
  44   25   26 1
  45   25   29 1
  46   25   51 1
  47   26   30 ar
  48   26   27 ar
  49   27   28 1
  50   27   33 ar
  51   28   29 1
  52   28   52 1
  53   28   53 1
  54   29   34 1
  55   29   35 1
  56   30   31 ar
  57   31   32 ar
  58   31   54 1
  59   32   33 ar
  60   32   55 1
  61   33   56 1
  62   34   57 1
  63   34   58 1
  64   34   59 1
  65   35   60 1
  66   35   61 1
  67   35   62 1

#	End of record

