#	Name: ASD05060066
#	Creating user name:	WinNT
#	Creation time:	15. 06. 2019 20:56

#	Modifying user name:	WinNT
#	Modification time:	15. 06. 2019 20:56

#	Program:	/corina/corina34_cracker 3.40 0067  02.08.2006

@<TRIPOS>MOLECULE
ASD05060066
  60   63    0    0    0
SMALL
NO_CHARGES


@<TRIPOS>ATOM
   1 C1            -2.4894    -2.9976    -0.0317 C.2     
   2 C2            -1.2333    -2.2166     0.0418 C.2     
   3 C3            -0.0394    -2.8485    -0.0228 C.2     
   4 C4             1.1966    -2.0694    -0.1582 C.2     
   5 O5            -2.4474    -4.2062    -0.1502 O.2     
   6 N6            -3.6793    -2.3684     0.0383 N.am    
   7 N7            -4.8676    -3.1072    -0.0313 N.am    
   8 C8            -5.3538    -3.8579     0.9721 C.2     
   9 C9            -6.6450    -4.5217     0.5469 C.3     
  10 C10           -6.6477    -4.3935    -0.9941 C.3     
  11 C11           -5.7447    -3.1560    -1.2070 C.3     
  12 O12           -4.8329    -3.9850     2.0600 O.2     
  13 O13            1.1416    -0.8652    -0.3306 O.2     
  14 O14           -1.2802    -0.8703     0.1738 O.3     
  15 C15            3.7061    -1.9899    -0.1052 C.2     
  16 C16            2.5020    -2.7429    -0.0856 C.2     
  17 C17            2.5798    -4.1325     0.0042 C.2     
  18 C18            3.8349    -4.7350     0.0716 C.2     
  19 C19            4.9595    -3.9732     0.0496 C.2     
  20 N20            4.8923    -2.6236    -0.0374 N.am    
  21 O21            3.6660    -0.7747    -0.1881 O.2     
  22 C22            3.9446    -6.2348     0.1696 C.3     
  23 C23            3.8250    -6.6540     1.6122 C.ar    
  24 C24            2.5831    -6.9412     2.1473 C.ar    
  25 C25            2.4723    -7.3262     3.4700 C.ar    
  26 C26            3.6056    -7.4242     4.2592 C.ar    
  27 C27            4.8490    -7.1363     3.7222 C.ar    
  28 C28            4.9579    -6.7566     2.3979 C.ar    
  29 F29            3.4984    -7.8000     5.5525 F       
  30 C30            6.1301    -1.8403    -0.0586 C.3     
  31 C31            6.5217    -1.4815     1.3517 C.ar    
  32 C32            7.1653    -2.4122     2.1499 C.ar    
  33 C33            7.5245    -2.0812     3.4453 C.ar    
  34 C34            7.2404    -0.8224     3.9404 C.ar    
  35 C35            6.5975     0.1057     3.1428 C.ar    
  36 C36            6.2438    -0.2218     1.8469 C.ar    
  37 F37            7.4422    -3.6424     1.6651 F       
  38 H38            0.0043    -3.9265     0.0252 H       
  39 H39           -3.7128    -1.4040     0.1368 H       
  40 H40           -6.6500    -5.5708     0.8424 H       
  41 H41           -7.5010    -3.9998     0.9746 H       
  42 H42           -6.2176    -5.2800    -1.4600 H       
  43 H43           -7.6544    -4.2075    -1.3683 H       
  44 H44           -6.3486    -2.2505    -1.2649 H       
  45 H45           -5.1527    -3.2742    -2.1146 H       
  46 H46           -0.4155    -0.4575     0.3042 H       
  47 H47            1.6818    -4.7322     0.0216 H       
  48 H48            5.9255    -4.4532     0.1029 H       
  49 H49            3.1453    -6.6962    -0.4103 H       
  50 H50            4.9098    -6.5549    -0.2229 H       
  51 H51            1.6992    -6.8643     1.5316 H       
  52 H52            1.5019    -7.5501     3.8879 H       
  53 H53            5.7337    -7.2124     4.3369 H       
  54 H54            5.9280    -6.5360     1.9776 H       
  55 H55            6.9246    -2.4286    -0.5178 H       
  56 H56            5.9734    -0.9287    -0.6353 H       
  57 H57            8.0261    -2.8064     4.0689 H       
  58 H58            7.5204    -0.5639     4.9509 H       
  59 H59            6.3753     1.0888     3.5308 H       
  60 H60            5.7462     0.5058     1.2229 H       
@<TRIPOS>BOND
   1    1    2 1
   2    1    5 2
   3    1    6 am
   4    2    3 2
   5    2   14 1
   6    3    4 1
   7    3   38 1
   8    4   13 2
   9    4   16 1
  10    6    7 1
  11    6   39 1
  12    7    8 am
  13    7   11 1
  14    8    9 1
  15    8   12 2
  16    9   10 1
  17    9   40 1
  18    9   41 1
  19   10   11 1
  20   10   42 1
  21   10   43 1
  22   11   44 1
  23   11   45 1
  24   14   46 1
  25   15   16 1
  26   15   20 am
  27   15   21 2
  28   16   17 2
  29   17   18 1
  30   17   47 1
  31   18   19 2
  32   18   22 1
  33   19   20 1
  34   19   48 1
  35   20   30 1
  36   22   23 1
  37   22   49 1
  38   22   50 1
  39   23   24 ar
  40   23   28 ar
  41   24   25 ar
  42   24   51 1
  43   25   26 ar
  44   25   52 1
  45   26   27 ar
  46   26   29 1
  47   27   28 ar
  48   27   53 1
  49   28   54 1
  50   30   31 1
  51   30   55 1
  52   30   56 1
  53   31   32 ar
  54   31   36 ar
  55   32   33 ar
  56   32   37 1
  57   33   34 ar
  58   33   57 1
  59   34   35 ar
  60   34   58 1
  61   35   36 ar
  62   35   59 1
  63   36   60 1

#	End of record

