#	Name: ASD03331910
#	Creating user name:	WinNT
#	Creation time:	15. 06. 2019 20:40

#	Modifying user name:	WinNT
#	Modification time:	15. 06. 2019 20:40

#	Program:	/corina/corina34_cracker 3.40 0067  02.08.2006

@<TRIPOS>MOLECULE
ASD03331910
  63   65    0    0    0
SMALL
NO_CHARGES


@<TRIPOS>ATOM
   1 C1            -0.0619     2.0064     1.7857 C.2     
   2 N2            -0.1512     0.7152     2.2019 N.pl3   
   3 C3             1.0654     0.1334     1.9955 C.2     
   4 N4             1.8788     1.0316     1.4913 N.2     
   5 C5             1.2146     2.1999     1.3522 C.2     
   6 C6             1.7714     3.4582     0.8250 C.2     
   7 O7             1.0696     4.4485     0.7477 O.2     
   8 N8             3.0584     3.5117     0.4283 N.am    
   9 C9             3.6120     4.7627    -0.0959 C.3     
  10 C10            3.3001     4.8720    -1.5898 C.3     
  11 C11            4.0048     3.7413    -2.3420 C.3     
  12 C12            5.1051     4.7755     0.1078 C.2     
  13 C13            1.7891     4.7633    -1.8045 C.3     
  14 C14            3.7944     6.2206    -2.1166 C.3     
  15 O15            5.6878     3.7494     0.3879 O.2     
  16 N16            5.7929     5.9273    -0.0213 N.am    
  17 C17            7.2526     5.9268     0.1034 C.3     
  18 C18           -1.3430     0.0889     2.7804 C.3     
  19 C19           -2.5601     0.4318     1.9157 C.3     
  20 C20           -3.1673     1.7518     2.3799 C.3     
  21 N21           -2.1316     2.6672     2.8631 N.3     
  22 C22           -1.1827     3.0133     1.7944 C.3     
  23 C23           -2.7282     3.8750     3.4489 C.3     
  24 C24            1.4103    -1.2742     2.2908 C.ar    
  25 C25            2.0960    -2.0419     1.3461 C.ar    
  26 C26            1.0573    -1.8399     3.5165 C.ar    
  27 C27            1.3816    -3.1532     3.7861 C.ar    
  28 C28            2.0563    -3.9110     2.8449 C.ar    
  29 C29            2.4146    -3.3571     1.6298 C.ar    
  30 C30            1.0006    -3.7646     5.1098 C.3     
  31 F31            2.4462    -1.5009     0.1588 F       
  32 F32           -0.2691    -4.3432     5.0080 F       
  33 F33            1.9344    -4.7472     5.4557 F       
  34 F34            0.9826    -2.7710     6.0945 F       
  35 H35            3.6181     2.7218     0.4899 H       
  36 H36            3.1661     5.6062     0.4311 H       
  37 H37            3.6526     2.7804    -1.9666 H       
  38 H38            3.7825     3.8191    -3.4062 H       
  39 H39            5.0812     3.8187    -2.1889 H       
  40 H40            1.2871     5.5688    -1.2687 H       
  41 H41            1.5669     4.8412    -2.8688 H       
  42 H42            1.4369     3.8024    -1.4292 H       
  43 H43            4.8390     6.3588    -1.8379 H       
  44 H44            3.7021     6.2424    -3.2025 H       
  45 H45            3.1941     7.0215    -1.6848 H       
  46 H46            5.3215     6.7567    -0.1969 H       
  47 H47            7.6291     6.9410    -0.0298 H       
  48 H48            7.5326     5.5622     1.0918 H       
  49 H49            7.6822     5.2767    -0.6588 H       
  50 H50           -1.2091    -0.9925     2.8086 H       
  51 H51           -1.4973     0.4644     3.7920 H       
  52 H52           -2.2511     0.5213     0.8743 H       
  53 H53           -3.3033    -0.3605     2.0055 H       
  54 H54           -3.6942     2.2159     1.5462 H       
  55 H55           -3.8755     1.5561     3.1850 H       
  56 H56           -0.7771     4.0087     1.9753 H       
  57 H57           -1.6951     2.9965     0.8325 H       
  58 H58           -3.3661     3.5952     4.2872 H       
  59 H59           -1.9369     4.5376     3.7996 H       
  60 H60           -3.3242     4.3885     2.6944 H       
  61 H61            0.5314    -1.2504     4.2529 H       
  62 H62            2.3077    -4.9386     3.0621 H       
  63 H63            2.9407    -3.9539     0.8995 H       
@<TRIPOS>BOND
   1    1    2 1
   2    1    5 2
   3    1   22 1
   4    2    3 1
   5    2   18 1
   6    3    4 2
   7    3   24 1
   8    4    5 1
   9    5    6 1
  10    6    7 2
  11    6    8 am
  12    8    9 1
  13    8   35 1
  14    9   10 1
  15    9   12 1
  16    9   36 1
  17   10   11 1
  18   10   13 1
  19   10   14 1
  20   11   37 1
  21   11   38 1
  22   11   39 1
  23   12   15 2
  24   12   16 am
  25   13   40 1
  26   13   41 1
  27   13   42 1
  28   14   43 1
  29   14   44 1
  30   14   45 1
  31   16   17 1
  32   16   46 1
  33   17   47 1
  34   17   48 1
  35   17   49 1
  36   18   19 1
  37   18   50 1
  38   18   51 1
  39   19   20 1
  40   19   52 1
  41   19   53 1
  42   20   21 1
  43   20   54 1
  44   20   55 1
  45   21   22 1
  46   21   23 1
  47   22   56 1
  48   22   57 1
  49   23   58 1
  50   23   59 1
  51   23   60 1
  52   24   25 ar
  53   24   26 ar
  54   25   31 1
  55   25   29 ar
  56   26   27 ar
  57   26   61 1
  58   27   28 ar
  59   27   30 1
  60   28   29 ar
  61   28   62 1
  62   29   63 1
  63   30   32 1
  64   30   33 1
  65   30   34 1

#	End of record

