#	Name: ASD00310295
#	Creating user name:	WinNT
#	Creation time:	15. 06. 2019 18:34

#	Modifying user name:	WinNT
#	Modification time:	15. 06. 2019 18:34

#	Program:	/corina/corina34_cracker 3.40 0067  02.08.2006

@<TRIPOS>MOLECULE
ASD00310295
  32   33    0    0    0
SMALL
NO_CHARGES


@<TRIPOS>ATOM
   1 C1            -0.0184     1.5028     0.0103 C.2     
   2 C2            -1.3012     2.2927     0.0472 C.3     
   3 N3             1.1673     2.1434    -0.0052 N.am    
   4 C4             1.2259     3.6071    -0.1180 C.3     
   5 C5             2.1396     3.9750    -1.2914 C.3     
   6 C6             3.5020     3.3041    -1.1017 C.3     
   7 C7             3.3260     1.7840    -1.0847 C.3     
   8 C8             2.4257     1.3917     0.0967 C.3     
   9 C9             4.4146     3.6912    -2.2367 C.ar    
  10 C10            5.5982     4.3560    -1.9757 C.ar    
  11 C11            6.4358     4.7108    -3.0164 C.ar    
  12 C12            6.0895     4.4007    -4.3192 C.ar    
  13 C13            4.9050     3.7355    -4.5799 C.ar    
  14 C14            4.0706     3.3764    -3.5381 C.ar    
  15 Br15           7.2346     4.8864    -5.7435 Br      
  16 O16           -0.0528     0.2905    -0.0004 O.2     
  17 H17           -1.0721     3.3528     0.1567 H       
  18 H18           -1.8524     2.1340    -0.8797 H       
  19 H19           -1.9069     1.9628     0.8912 H       
  20 H20            0.2252     4.0002    -0.2970 H       
  21 H21            1.6270     4.0289     0.8036 H       
  22 H22            1.6912     3.6308    -2.2234 H       
  23 H23            2.2685     5.0567    -1.3268 H       
  24 H24            3.9388     3.6297    -0.1576 H       
  25 H25            2.8665     1.4605    -2.0186 H       
  26 H26            4.2994     1.3063    -0.9730 H       
  27 H27            2.9226     1.6365     1.0354 H       
  28 H28            2.2167     0.3226     0.0594 H       
  29 H29            5.8684     4.5984    -0.9586 H       
  30 H30            7.3603     5.2305    -2.8125 H       
  31 H31            4.6340     3.4935    -5.5969 H       
  32 H32            3.1477     2.8534    -3.7412 H       
@<TRIPOS>BOND
   1    1    2 1
   2    1    3 am
   3    1   16 2
   4    2   17 1
   5    2   18 1
   6    2   19 1
   7    3    4 1
   8    3    8 1
   9    4    5 1
  10    4   20 1
  11    4   21 1
  12    5    6 1
  13    5   22 1
  14    5   23 1
  15    6    7 1
  16    6    9 1
  17    6   24 1
  18    7    8 1
  19    7   25 1
  20    7   26 1
  21    8   27 1
  22    8   28 1
  23    9   10 ar
  24    9   14 ar
  25   10   11 ar
  26   10   29 1
  27   11   12 ar
  28   11   30 1
  29   12   13 ar
  30   12   15 1
  31   13   14 ar
  32   13   31 1
  33   14   32 1

#	End of record

