#	Name: ASD01209248
#	Creating user name:	WinNT
#	Creation time:	15. 06. 2019 19:11

#	Modifying user name:	WinNT
#	Modification time:	15. 06. 2019 19:11

#	Program:	/corina/corina34_cracker 3.40 0067  02.08.2006

@<TRIPOS>MOLECULE
ASD01209248
  67   69    0    0    0
SMALL
NO_CHARGES


@<TRIPOS>ATOM
   1 O1             2.3330    -2.4293    -1.1190 O.3     
   2 O2             3.0347    -4.9620    -1.0491 O.3     
   3 C3            -5.7956    -1.2336    -8.0434 C.ar    
   4 C4            -6.3072    -2.5226    -8.0168 C.ar    
   5 C5            -5.5735    -3.5530    -7.4456 C.ar    
   6 C6            -4.3265    -3.2977    -6.8995 C.ar    
   7 C7            -3.8082    -2.0023    -6.9242 C.ar    
   8 C8            -4.5470    -0.9705    -7.5042 C.ar    
   9 O9            -6.0793    -4.8140    -7.4221 O.3     
  10 C10           -2.4778    -1.7250    -6.3427 C.2     
  11 N11           -1.7635    -2.7241    -5.7875 N.am    
  12 O12           -2.0279    -0.5960    -6.3652 O.2     
  13 C13           -0.5135    -2.4636    -5.2410 C.2     
  14 P14            2.0650    -3.8855    -1.7511 P.3     
  15 O15            0.6541    -4.2702    -1.5233 O.2     
  16 C16            2.4013    -3.8417    -3.5423 C.3     
  17 N17            0.2530    -3.3490    -4.6847 N.2     
  18 S18            0.2418    -0.9301    -5.2106 S.3     
  19 C19            1.6372    -1.6219    -4.3874 C.2     
  20 C20            1.4124    -2.9262    -4.2168 C.2     
  21 O21           -6.5180    -0.2284    -8.6044 O.3     
  22 C22           -5.9754     1.0904    -8.5118 C.3     
  23 C23           -7.1062     2.1156    -8.6159 C.3     
  24 O24           -7.6988     2.0410    -9.9141 O.3     
  25 C25           -8.7719     2.9627   -10.1170 C.3     
  26 C26           -4.9787     1.3129    -9.6510 C.3     
  27 C27            2.9441    -5.3051     0.3351 C.3     
  28 C28            4.0072    -6.3527     0.6716 C.3     
  29 C29           -6.6001    -5.2708    -6.2530 C.ar    
  30 C30           -7.0933    -6.5651    -6.1706 C.ar    
  31 C31           -7.6218    -7.0272    -4.9809 C.ar    
  32 C32           -7.6594    -6.2011    -3.8727 C.ar    
  33 C33           -7.1686    -4.9109    -3.9521 C.ar    
  34 C34           -6.6343    -4.4456    -5.1380 C.ar    
  35 S35           -8.3347    -6.7934    -2.3568 S.o2    
  36 O36           -8.7820    -5.6207    -1.6905 O.2     
  37 O37           -9.2503    -7.8054    -2.7528 O.2     
  38 C38           -6.9201    -7.5206    -1.4847 C.3     
  39 H39            3.2397    -2.1125    -1.2314 H       
  40 H40           -7.2793    -2.7250    -8.4414 H       
  41 H41           -3.7565    -4.0998    -6.4545 H       
  42 H42           -4.1493     0.0334    -7.5258 H       
  43 H43           -2.1225    -3.6250    -5.7695 H       
  44 H44            3.4127    -3.4732    -3.7131 H       
  45 H45            2.3061    -4.8463    -3.9545 H       
  46 H46            2.5217    -1.0849    -4.0779 H       
  47 H47           -5.4659     1.2072    -7.5553 H       
  48 H48           -7.8611     1.9021    -7.8591 H       
  49 H49           -6.7050     3.1165    -8.4566 H       
  50 H50           -9.1676     2.8432   -11.1256 H       
  51 H51           -9.5613     2.7667    -9.3914 H       
  52 H52           -8.4052     3.9811    -9.9889 H       
  53 H53           -5.4881     1.1961   -10.6075 H       
  54 H54           -4.5648     2.3188    -9.5804 H       
  55 H55           -4.1730     0.5825    -9.5769 H       
  56 H56            3.1070    -4.4143     0.9417 H       
  57 H57            1.9545    -5.7113     0.5447 H       
  58 H58            3.8442    -7.2436     0.0651 H       
  59 H59            4.9967    -5.9465     0.4620 H       
  60 H60            3.9380    -6.6144     1.7275 H       
  61 H61           -7.0645    -7.2106    -7.0360 H       
  62 H62           -8.0061    -8.0344    -4.9163 H       
  63 H63           -7.1995    -4.2675    -3.0852 H       
  64 H64           -6.2511    -3.4378    -5.1995 H       
  65 H65           -6.1617    -6.7551    -1.3208 H       
  66 H66           -7.2499    -7.9169    -0.5244 H       
  67 H67           -6.4986    -8.3269    -2.0850 H       
@<TRIPOS>BOND
   1    1   14 1
   2    1   39 1
   3    2   27 1
   4    2   14 1
   5    3    4 ar
   6    3   21 1
   7    3    8 ar
   8    4    5 ar
   9    4   40 1
  10    5    6 ar
  11    5    9 1
  12    6    7 ar
  13    6   41 1
  14    7    8 ar
  15    7   10 1
  16    8   42 1
  17    9   29 1
  18   10   11 am
  19   10   12 2
  20   11   13 1
  21   11   43 1
  22   13   17 2
  23   13   18 1
  24   14   15 2
  25   14   16 1
  26   16   20 1
  27   16   44 1
  28   16   45 1
  29   17   20 1
  30   18   19 1
  31   19   20 2
  32   19   46 1
  33   21   22 1
  34   22   23 1
  35   22   26 1
  36   22   47 1
  37   23   24 1
  38   23   48 1
  39   23   49 1
  40   24   25 1
  41   25   50 1
  42   25   51 1
  43   25   52 1
  44   26   53 1
  45   26   54 1
  46   26   55 1
  47   27   28 1
  48   27   56 1
  49   27   57 1
  50   28   58 1
  51   28   59 1
  52   28   60 1
  53   29   30 ar
  54   29   34 ar
  55   30   31 ar
  56   30   61 1
  57   31   32 ar
  58   31   62 1
  59   32   33 ar
  60   32   35 1
  61   33   34 ar
  62   33   63 1
  63   34   64 1
  64   35   36 2
  65   35   37 2
  66   35   38 1
  67   38   65 1
  68   38   66 1
  69   38   67 1

#	End of record

