#	Name: ASD03330729
#	Creating user name:	WinNT
#	Creation time:	15. 06. 2019 20:37

#	Modifying user name:	WinNT
#	Modification time:	15. 06. 2019 20:37

#	Program:	/corina/corina34_cracker 3.40 0067  02.08.2006

@<TRIPOS>MOLECULE
ASD03330729
  76   79    0    0    0
SMALL
NO_CHARGES


@<TRIPOS>ATOM
   1 C1            -0.0165     1.3543     0.0391 C.2     
   2 N2             0.0051    -0.0057     0.0506 N.pl3   
   3 C3             1.2707     1.7867    -0.0302 C.2     
   4 N4             2.0651     0.6966    -0.1023 N.2     
   5 C5             1.3181    -0.3799    -0.0685 C.2     
   6 C6             1.8119    -1.7719    -0.1458 C.ar    
   7 C7             1.7183     3.1907    -0.0272 C.2     
   8 O8             0.9015     4.0892     0.0421 O.2     
   9 C9             3.4776     4.8749    -0.0983 C.3     
  10 N10            3.0327     3.4791    -0.1013 N.am    
  11 C11            3.6006     5.3679     1.3448 C.3     
  12 C12            4.6196     4.5062     2.0931 C.3     
  13 C13            4.0653     6.8257     1.3479 C.3     
  14 C14            4.8180     4.9763    -0.7797 C.2     
  15 N15            5.1778     5.8738    -1.6655 N.2     
  16 C16           -1.1237    -0.9321     0.1945 C.3     
  17 C17           -2.4056    -0.3152    -0.3656 C.3     
  18 C18           -3.0744     0.5624     0.7035 C.3     
  19 N19           -2.1724     1.6416     1.0729 N.am    
  20 C20           -1.2670     2.1918     0.0563 C.3     
  21 C21            2.2398     5.2650     2.0366 C.3     
  22 C22           -2.1679     2.1295     2.3292 C.2     
  23 C23            1.3496    -2.7307     0.7563 C.ar    
  24 C24            2.7391    -2.1343    -1.1262 C.ar    
  25 C25            3.1955    -3.4377    -1.1922 C.ar    
  26 C26            2.7359    -4.3800    -0.2908 C.ar    
  27 C27            1.8135    -4.0275     0.6788 C.ar    
  28 O28           -2.9214     1.6676     3.1631 O.2     
  29 O29           -1.3285     3.1288     2.6602 O.3     
  30 C30           -1.3782     3.6046     4.0312 C.3     
  31 C31           -1.0433     2.4542     4.9827 C.3     
  32 C32           -0.3612     4.7325     4.2168 C.3     
  33 C33           -2.7825     4.1284     4.3387 C.3     
  34 C34            6.4477     5.5729    -1.9904 C.2     
  35 N35            6.7891     4.5272    -1.2986 N.2     
  36 O36            5.8689     4.1723    -0.5924 O.3     
  37 C37            7.3153     6.3123    -2.9762 C.3     
  38 F38            3.1880    -1.2138    -2.0073 F       
  39 C39            3.2370    -5.7991    -0.3685 C.3     
  40 H40            2.7517     5.4888    -0.6314 H       
  41 H41            3.6841     2.7625    -0.1565 H       
  42 H42            5.5891     4.5796     1.6003 H       
  43 H43            4.7072     4.8575     3.1213 H       
  44 H44            4.2886     3.4677     2.0909 H       
  45 H45            3.3393     7.4396     0.8149 H       
  46 H46            4.1528     7.1769     2.3761 H       
  47 H47            5.0347     6.8990     0.8551 H       
  48 H48           -0.9032    -1.8531    -0.3452 H       
  49 H49           -1.2674    -1.1614     1.2504 H       
  50 H50           -2.1635     0.2953    -1.2355 H       
  51 H51           -3.0904    -1.1098    -0.6618 H       
  52 H52           -3.9984     0.9810     0.3046 H       
  53 H53           -3.2980    -0.0419     1.5826 H       
  54 H54           -1.0160     3.2226     0.3065 H       
  55 H55           -1.7470     2.1564    -0.9217 H       
  56 H56            1.9088     4.2264     2.0344 H       
  57 H57            2.3274     5.6162     3.0648 H       
  58 H58            1.5138     5.8789     1.5036 H       
  59 H59            0.6301    -2.4580     1.5141 H       
  60 H60            3.9119    -3.7204    -1.9493 H       
  61 H61            1.4589    -4.7689     1.3796 H       
  62 H62           -0.0429     2.0810     4.7636 H       
  63 H63           -1.0806     2.8114     6.0118 H       
  64 H64           -1.7678     1.6507     4.8505 H       
  65 H65           -0.5998     5.5520     3.5389 H       
  66 H66           -0.3985     5.0896     5.2459 H       
  67 H67            0.6392     4.3593     3.9977 H       
  68 H68           -3.5070     3.3249     4.2064 H       
  69 H69           -2.8198     4.4856     5.3678 H       
  70 H70           -3.0211     4.9480     3.6608 H       
  71 H71            7.8622     7.1006    -2.4590 H       
  72 H72            8.0219     5.6178    -3.4306 H       
  73 H73            6.6892     6.7531    -3.7519 H       
  74 H74            4.1268    -5.9048     0.2521 H       
  75 H75            2.4624    -6.4780    -0.0117 H       
  76 H76            3.4842    -6.0411    -1.4022 H       
@<TRIPOS>BOND
   1    1    2 1
   2    1    3 2
   3    1   20 1
   4    2   16 1
   5    2    5 1
   6    3    4 1
   7    3    7 1
   8    4    5 2
   9    5    6 1
  10    6   24 ar
  11    6   23 ar
  12    7    8 2
  13    7   10 am
  14    9   10 1
  15    9   11 1
  16    9   14 1
  17    9   40 1
  18   10   41 1
  19   11   12 1
  20   11   13 1
  21   11   21 1
  22   12   42 1
  23   12   43 1
  24   12   44 1
  25   13   45 1
  26   13   46 1
  27   13   47 1
  28   14   15 2
  29   14   36 1
  30   15   34 1
  31   16   17 1
  32   16   48 1
  33   16   49 1
  34   17   18 1
  35   17   50 1
  36   17   51 1
  37   18   19 1
  38   18   52 1
  39   18   53 1
  40   19   20 1
  41   19   22 am
  42   20   54 1
  43   20   55 1
  44   21   56 1
  45   21   57 1
  46   21   58 1
  47   22   28 2
  48   22   29 1
  49   23   27 ar
  50   23   59 1
  51   24   25 ar
  52   24   38 1
  53   25   26 ar
  54   25   60 1
  55   26   27 ar
  56   26   39 1
  57   27   61 1
  58   29   30 1
  59   30   31 1
  60   30   32 1
  61   30   33 1
  62   31   62 1
  63   31   63 1
  64   31   64 1
  65   32   65 1
  66   32   66 1
  67   32   67 1
  68   33   68 1
  69   33   69 1
  70   33   70 1
  71   34   35 2
  72   34   37 1
  73   35   36 1
  74   37   71 1
  75   37   72 1
  76   37   73 1
  77   39   74 1
  78   39   75 1
  79   39   76 1

#	End of record

