#	Name: ASD03540021
#	Creating user name:	WinNT
#	Creation time:	15. 06. 2019 20:42

#	Modifying user name:	WinNT
#	Modification time:	15. 06. 2019 20:42

#	Program:	/corina/corina34_cracker 3.40 0067  02.08.2006

@<TRIPOS>MOLECULE
ASD03540021
  58   61    0    0    0
SMALL
NO_CHARGES


@<TRIPOS>ATOM
   1 O1            -0.0162     1.3452     0.0094 O.3     
   2 C2             0.0021    -0.0041     0.0020 C.2     
   3 C3             1.3071    -0.4088    -0.0126 C.2     
   4 C4             2.0903     0.7554    -0.0138 C.2     
   5 C5             1.2408     1.8067    -0.0001 C.2     
   6 C6            -1.1711    -0.8810     0.0089 C.2     
   7 O7            -1.0277    -2.0887     0.0015 O.2     
   8 O8            -2.4107    -0.3490     0.0236 O.3     
   9 C9             1.6423     3.2592     0.0034 C.3     
  10 C10           -0.5728     4.0370    -0.6096 C.2     
  11 N11           -1.4417     4.7123    -1.3754 N.am    
  12 C12           -1.0206     5.4271    -2.4827 C.2     
  13 C13            0.3317     5.4420    -2.8030 C.2     
  14 C14            1.2503     4.6807    -1.9271 C.2     
  15 N15            0.7439     4.0163    -0.8717 N.am    
  16 C16            0.6145     6.2000    -3.9416 C.2     
  17 C17           -0.4625     6.7678    -4.5095 C.2     
  18 S18           -1.9096     6.3572    -3.6064 S.3     
  19 O19            2.4450     4.6563    -2.1571 O.2     
  20 O20           -0.9900     3.4276     0.3562 O.2     
  21 C21            1.5507     3.8102     1.4278 C.3     
  22 C22           -0.4329     7.6081    -5.7090 C.2     
  23 N23           -1.5768     8.1290    -6.1953 N.am    
  24 O24            0.6249     7.8360    -6.2665 O.2     
  25 C25           -1.5472     8.9694    -7.3949 C.3     
  26 C26           -2.9462     9.4210    -7.7265 C.ar    
  27 C27           -3.4357    10.5985    -7.1947 C.ar    
  28 C28           -4.7234    11.0136    -7.5003 C.ar    
  29 C29           -5.5168    10.2448    -8.3397 C.ar    
  30 C30           -5.0228     9.0685    -8.8688 C.ar    
  31 C31           -3.7367     8.6596    -8.5671 C.ar    
  32 O32           -5.2074    12.1712    -6.9781 O.3     
  33 C33           -6.5417    12.5365    -7.3360 C.3     
  34 C34           -3.5266    -1.2780     0.0297 C.3     
  35 C35           -4.8414    -0.4956     0.0463 C.3     
  36 H36            1.6661    -1.4273    -0.0215 H       
  37 H37            3.1692     0.8026    -0.0239 H       
  38 H38            2.6664     3.3540    -0.3577 H       
  39 H39           -2.3848     4.6992    -1.1488 H       
  40 H40            1.6143     6.3197    -4.3322 H       
  41 H41            0.5266     3.7154     1.7889 H       
  42 H42            2.2192     3.2469     2.0790 H       
  43 H43            1.8411     4.8608     1.4304 H       
  44 H44           -2.4198     7.9474    -5.7510 H       
  45 H45           -0.9178     9.8405    -7.2128 H       
  46 H46           -1.1427     8.3969    -8.2297 H       
  47 H47           -2.8163    11.1950    -6.5413 H       
  48 H48           -6.5199    10.5657    -8.5789 H       
  49 H49           -5.6401     8.4695    -9.5220 H       
  50 H50           -3.3505     7.7420    -8.9856 H       
  51 H51           -6.8028    13.4780    -6.8527 H       
  52 H52           -6.6089    12.6526    -8.4178 H       
  53 H53           -7.2313    11.7576    -7.0107 H       
  54 H54           -3.4858    -1.9009    -0.8639 H       
  55 H55           -3.4686    -1.9098     0.9160 H       
  56 H56           -5.6791    -1.1930     0.0509 H       
  57 H57           -4.8823     0.1273     0.9399 H       
  58 H58           -4.8994     0.1362    -0.8400 H       
@<TRIPOS>BOND
   1    1    2 1
   2    1    5 1
   3    2    3 2
   4    2    6 1
   5    3    4 1
   6    3   36 1
   7    4    5 2
   8    4   37 1
   9    5    9 1
  10    6    7 2
  11    6    8 1
  12    8   34 1
  13    9   15 1
  14    9   21 1
  15    9   38 1
  16   10   11 am
  17   10   15 am
  18   10   20 2
  19   11   12 1
  20   11   39 1
  21   12   13 2
  22   12   18 1
  23   13   14 1
  24   13   16 1
  25   14   15 am
  26   14   19 2
  27   16   17 2
  28   16   40 1
  29   17   18 1
  30   17   22 1
  31   21   41 1
  32   21   42 1
  33   21   43 1
  34   22   23 am
  35   22   24 2
  36   23   25 1
  37   23   44 1
  38   25   26 1
  39   25   45 1
  40   25   46 1
  41   26   27 ar
  42   26   31 ar
  43   27   28 ar
  44   27   47 1
  45   28   29 ar
  46   28   32 1
  47   29   30 ar
  48   29   48 1
  49   30   31 ar
  50   30   49 1
  51   31   50 1
  52   32   33 1
  53   33   51 1
  54   33   52 1
  55   33   53 1
  56   34   35 1
  57   34   54 1
  58   34   55 1
  59   35   56 1
  60   35   57 1
  61   35   58 1

#	End of record

