#	Name: ASD02408123
#	Creating user name:	WinNT
#	Creation time:	15. 06. 2019 20:21

#	Modifying user name:	WinNT
#	Modification time:	15. 06. 2019 20:21

#	Program:	/corina/corina34_cracker 3.40 0067  02.08.2006

@<TRIPOS>MOLECULE
ASD02408123
  38   40    0    0    0
SMALL
NO_CHARGES


@<TRIPOS>ATOM
   1 C1            -0.1352     1.5188     0.0060 C.2     
   2 C2            -0.1776     0.1862     0.0455 C.2     
   3 C3             1.1603     2.2887    -0.0003 C.3     
   4 C4             1.6108     2.5022    -1.4225 C.2     
   5 N5             2.7561     3.1744    -1.6488 N.am    
   6 N6             0.8810     2.0249    -2.3939 N.2     
   7 C7             1.2321     2.1838    -3.6764 C.2     
   8 C8             2.4127     2.8798    -3.9845 C.2     
   9 C9             3.1896     3.3834    -2.9097 C.2     
  10 N10            0.4467     1.6713    -4.6796 N.pl3   
  11 C11            0.2529     2.2729    -6.0114 C.3     
  12 O12            4.2229     3.9947    -3.1203 O.2     
  13 C13           -1.1104     1.7233    -6.5003 C.3     
  14 C14           -1.0771     0.2730    -5.9499 C.3     
  15 C15           -0.3352     0.4284    -4.6055 C.3     
  16 C16            0.5939    -0.7666    -4.3827 C.3     
  17 O17            1.4507    -0.9216    -5.5158 O.3     
  18 S18           -1.8524    -0.3510     0.0400 S.3     
  19 C19           -2.4175     1.3136    -0.0173 C.2     
  20 C20           -1.3712     2.1408    -0.0345 C.2     
  21 C21            2.8226     3.0708    -5.3432 C.1     
  22 N22            3.1478     3.2224    -6.4211 N.1     
  23 H23            0.6845    -0.4636     0.0758 H       
  24 H24            1.0113     3.2546     0.4825 H       
  25 H25            1.9204     1.7254     0.5409 H       
  26 H26            3.2727     3.5110    -0.9000 H       
  27 H27            0.2185     3.3597    -5.9354 H       
  28 H28            1.0507     1.9641    -6.6869 H       
  29 H29           -1.9368     2.2867    -6.0672 H       
  30 H30           -1.1654     1.7268    -7.5890 H       
  31 H31           -2.0880    -0.1036    -5.7939 H       
  32 H32           -0.5198    -0.3812    -6.6203 H       
  33 H33           -1.0556     0.4975    -3.7904 H       
  34 H34            1.1976    -0.5963    -3.4913 H       
  35 H35           -0.0015    -1.6701    -4.2511 H       
  36 H36            2.0682    -1.6622    -5.4436 H       
  37 H37           -3.4531     1.6191    -0.0398 H       
  38 H38           -1.4802     3.2147    -0.0694 H       
@<TRIPOS>BOND
   1    1    2 2
   2    1    3 1
   3    1   20 1
   4    2   18 1
   5    2   23 1
   6    3    4 1
   7    3   24 1
   8    3   25 1
   9    4    5 1
  10    4    6 2
  11    5    9 am
  12    5   26 1
  13    6    7 1
  14    7    8 2
  15    7   10 1
  16    8    9 1
  17    8   21 1
  18    9   12 2
  19   10   11 1
  20   10   15 1
  21   11   13 1
  22   11   27 1
  23   11   28 1
  24   13   14 1
  25   13   29 1
  26   13   30 1
  27   14   15 1
  28   14   31 1
  29   14   32 1
  30   15   16 1
  31   15   33 1
  32   16   17 1
  33   16   34 1
  34   16   35 1
  35   17   36 1
  36   18   19 1
  37   19   20 2
  38   19   37 1
  39   20   38 1
  40   21   22 3

#	End of record

