#	Name: ASD08070030
#	Creating user name:	WinNT
#	Creation time:	15. 06. 2019 21:14

#	Modifying user name:	WinNT
#	Modification time:	15. 06. 2019 21:14

#	Program:	/corina/corina34_cracker 3.40 0067  02.08.2006

@<TRIPOS>MOLECULE
ASD08070030
  45   46    0    0    0
SMALL
NO_CHARGES


@<TRIPOS>ATOM
   1 C1            -0.0170     1.4014     0.0097 C.ar    
   2 C2             0.0021    -0.0041     0.0020 C.ar    
   3 C3            -1.2003    -0.7173     0.0097 C.ar    
   4 C4            -2.3892    -0.0505     0.0246 C.ar    
   5 C5            -2.4168     1.3498     0.0324 C.ar    
   6 C6            -1.2247     2.0738     0.0299 C.ar    
   7 O7             1.2755     1.7966    -0.0005 O.3     
   8 C8             2.0472     0.6994    -0.0137 C.2     
   9 N9             1.3098    -0.3714    -0.0124 N.2     
  10 C10            3.5541     0.7069    -0.0281 C.3     
  11 C11           -3.7104     2.0609     0.0481 C.2     
  12 N12           -4.8632     1.3626     0.0549 N.am    
  13 O13           -3.7359     3.2764     0.0548 O.2     
  14 C14           -6.1469     2.0683     0.0704 C.3     
  15 C15           -6.5464     2.4319    -1.3610 C.3     
  16 C16           -7.2180     1.1650     0.6851 C.3     
  17 C17           -6.8823     0.9030     2.1546 C.3     
  18 C18           -5.5408     3.4335    -1.9324 C.3     
  19 C19            4.0503     0.7172    -1.4753 C.3     
  20 C20           -7.9534    -0.0003     2.7692 C.3     
  21 C21           -5.9403     3.7970    -3.3639 C.3     
  22 H22           -1.1872    -1.7972     0.0034 H       
  23 H23           -3.3157    -0.6055     0.0301 H       
  24 H24           -1.2451     3.1536     0.0358 H       
  25 H25            3.9179     1.5959     0.4871 H       
  26 H26            3.9267    -0.1840     0.4774 H       
  27 H27           -4.8428     0.3928     0.0495 H       
  28 H28           -6.0544     2.9778     0.6640 H       
  29 H29           -6.5525     1.5321    -1.9762 H       
  30 H30           -7.5413     2.8771    -1.3586 H       
  31 H31           -8.1895     1.6545     0.6160 H       
  32 H32           -7.2488     0.2187     0.1451 H       
  33 H33           -5.9108     0.4135     2.2237 H       
  34 H34           -6.8515     1.8494     2.6946 H       
  35 H35           -5.5348     4.3333    -1.3172 H       
  36 H36           -4.5459     2.9883    -1.9348 H       
  37 H37            3.6777     1.6081    -1.9809 H       
  38 H38            5.1403     0.7226    -1.4857 H       
  39 H39            3.6865    -0.1718    -1.9905 H       
  40 H40           -7.7142    -0.1869     3.8161 H       
  41 H41           -8.9248     0.4892     2.7001 H       
  42 H42           -7.9841    -0.9466     2.2292 H       
  43 H43           -5.9464     2.8973    -3.9790 H       
  44 H44           -6.9353     4.2423    -3.3615 H       
  45 H45           -5.2240     4.5106    -3.7709 H       
@<TRIPOS>BOND
   1    1    2 ar
   2    1    7 1
   3    1    6 ar
   4    2    3 ar
   5    2    9 1
   6    3    4 ar
   7    3   22 1
   8    4    5 ar
   9    4   23 1
  10    5    6 ar
  11    5   11 1
  12    6   24 1
  13    7    8 1
  14    8    9 2
  15    8   10 1
  16   10   19 1
  17   10   25 1
  18   10   26 1
  19   11   12 am
  20   11   13 2
  21   12   14 1
  22   12   27 1
  23   14   15 1
  24   14   16 1
  25   14   28 1
  26   15   18 1
  27   15   29 1
  28   15   30 1
  29   16   17 1
  30   16   31 1
  31   16   32 1
  32   17   20 1
  33   17   33 1
  34   17   34 1
  35   18   21 1
  36   18   35 1
  37   18   36 1
  38   19   37 1
  39   19   38 1
  40   19   39 1
  41   20   40 1
  42   20   41 1
  43   20   42 1
  44   21   43 1
  45   21   44 1
  46   21   45 1

#	End of record

