#	Name: ASD01884264
#	Creating user name:	WinNT
#	Creation time:	15. 06. 2019 19:47

#	Modifying user name:	WinNT
#	Modification time:	15. 06. 2019 19:47

#	Program:	/corina/corina34_cracker 3.40 0067  02.08.2006

@<TRIPOS>MOLECULE
ASD01884264
  17   18    0    0    0
SMALL
NO_CHARGES


@<TRIPOS>ATOM
   1 C1            -0.0168     1.3857     0.0097 C.ar    
   2 C2             0.0021    -0.0041     0.0020 C.ar    
   3 C3            -1.1699    -0.7232     0.0094 C.ar    
   4 C4            -2.4131    -0.0730     0.0252 C.ar    
   5 C5            -2.4143     1.3224     0.0332 C.ar    
   6 C6            -1.2366     2.0481     0.0307 C.ar    
   7 N7            -3.6743    -0.6472     0.0347 N.am    
   8 C8            -4.7427     0.1556     0.0501 C.2     
   9 S9            -4.1142     1.8117     0.0532 S.3     
  10 Br10          -1.2883     3.9384     0.0417 Br      
  11 N11            1.1812     2.1094     0.0021 N.pl3   
  12 O12           -5.9118    -0.1830     0.0596 O.2     
  13 H13            0.9480    -0.5251    -0.0102 H       
  14 H14           -1.1329    -1.8025     0.0025 H       
  15 H15           -3.7795    -1.6115     0.0300 H       
  16 H16            2.0307     1.6412    -0.0085 H       
  17 H17            1.1620     3.0792     0.0075 H       
@<TRIPOS>BOND
   1    1    2 ar
   2    1   11 1
   3    1    6 ar
   4    2    3 ar
   5    2   13 1
   6    3    4 ar
   7    3   14 1
   8    4    5 ar
   9    4    7 1
  10    5    6 ar
  11    5    9 1
  12    6   10 1
  13    7    8 am
  14    7   15 1
  15    8    9 1
  16    8   12 2
  17   11   16 1
  18   11   17 1

#	End of record

