#	Name: ASD03492007
#	Creating user name:	WinNT
#	Creation time:	15. 06. 2019 20:42

#	Modifying user name:	WinNT
#	Modification time:	15. 06. 2019 20:42

#	Program:	/corina/corina34_cracker 3.40 0067  02.08.2006

@<TRIPOS>MOLECULE
ASD03492007
  55   57    0    0    0
SMALL
NO_CHARGES


@<TRIPOS>ATOM
   1 C1            -0.0157     1.3045     0.0092 C.2     
   2 N2             0.0021    -0.0041     0.0020 N.2     
   3 N3            -1.3208    -0.4647     0.0122 N.pl3   
   4 C4            -2.1392     0.6226     0.0258 C.2     
   5 C5            -1.3471     1.7295     0.0303 C.2     
   6 C6            -1.7286    -1.8056     0.0084 C.ar    
   7 C7             1.1951     2.2017     0.0025 C.3     
   8 N8            -3.5336     0.6056     0.0384 N.am    
   9 C9            -4.2215     1.7645     0.0512 C.2     
  10 N10           -5.5692     1.7481     0.0634 N.am    
  11 O11           -3.6264     2.8248     0.0519 O.2     
  12 C12           -6.2786     2.9433     0.0766 C.2     
  13 S13           -7.9835     3.0699     0.0928 S.3     
  14 C14           -7.8634     4.8275     0.1018 C.2     
  15 C15           -6.5699     5.1540     0.0919 C.2     
  16 N16           -5.7439     4.1241     0.0842 N.2     
  17 C17           -0.9957    -2.7536    -0.6929 C.ar    
  18 C18           -1.4002    -4.0742    -0.6947 C.ar    
  19 C19           -2.5340    -4.4525     0.0006 C.ar    
  20 C20           -3.2662    -3.5106     0.6997 C.ar    
  21 C21           -2.8631    -2.1896     0.7107 C.ar    
  22 C22           -2.9728    -5.8942    -0.0038 C.3     
  23 C23            1.3963     2.7973     1.3973 C.3     
  24 C24            2.4307     1.3880    -0.3877 C.3     
  25 C25            0.9877     3.3306    -1.0091 C.3     
  26 C26           -2.3290    -6.6188     1.1501 C.2     
  27 O27           -1.5898    -6.0254     1.8993 O.2     
  28 O28           -2.5769    -7.9234     1.3457 O.3     
  29 C29           -2.3229   -10.0319     2.5374 C.3     
  30 C30           -1.9226    -8.5564     2.4768 C.3     
  31 H31           -1.6872     2.7545     0.0407 H       
  32 H32           -4.0084    -0.2403     0.0378 H       
  33 H33           -6.0439     0.9023     0.0628 H       
  34 H34           -8.6922     5.5199     0.1127 H       
  35 H35           -6.2262     6.1778     0.0943 H       
  36 H36           -0.1105    -2.4586    -1.2367 H       
  37 H37           -0.8305    -4.8121    -1.2401 H       
  38 H38           -4.1517    -3.8089     1.2412 H       
  39 H39           -3.4354    -1.4543     1.2569 H       
  40 H40           -4.0571    -5.9443     0.0952 H       
  41 H41           -2.6714    -6.3628    -0.9407 H       
  42 H42            1.5441     1.9930     2.1180 H       
  43 H43            2.2721     3.4462     1.3925 H       
  44 H44            0.5161     3.3770     1.6753 H       
  45 H45            2.2874     0.9636    -1.3814 H       
  46 H46            3.3064     2.0369    -0.3925 H       
  47 H47            2.5784     0.5837     0.3330 H       
  48 H48            0.1075     3.9104    -0.7312 H       
  49 H49            1.8635     3.9796    -1.0140 H       
  50 H50            0.8444     2.9063    -2.0028 H       
  51 H51           -1.8317   -10.5071     3.3865 H       
  52 H52           -3.4040   -10.1106     2.6524 H       
  53 H53           -2.0183   -10.5291     1.6165 H       
  54 H54           -0.8415    -8.4777     2.3619 H       
  55 H55           -2.2272    -8.0592     3.3977 H       
@<TRIPOS>BOND
   1    1    2 2
   2    1    7 1
   3    1    5 1
   4    2    3 1
   5    3    4 1
   6    3    6 1
   7    4    5 2
   8    4    8 1
   9    5   31 1
  10    6   17 ar
  11    6   21 ar
  12    7   23 1
  13    7   24 1
  14    7   25 1
  15    8    9 am
  16    8   32 1
  17    9   10 am
  18    9   11 2
  19   10   12 1
  20   10   33 1
  21   12   13 1
  22   12   16 2
  23   13   14 1
  24   14   15 2
  25   14   34 1
  26   15   16 1
  27   15   35 1
  28   17   18 ar
  29   17   36 1
  30   18   19 ar
  31   18   37 1
  32   19   20 ar
  33   19   22 1
  34   20   21 ar
  35   20   38 1
  36   21   39 1
  37   22   26 1
  38   22   40 1
  39   22   41 1
  40   23   42 1
  41   23   43 1
  42   23   44 1
  43   24   45 1
  44   24   46 1
  45   24   47 1
  46   25   48 1
  47   25   49 1
  48   25   50 1
  49   26   27 2
  50   26   28 1
  51   28   30 1
  52   29   30 1
  53   29   51 1
  54   29   52 1
  55   29   53 1
  56   30   54 1
  57   30   55 1

#	End of record

