#	Name: ASD07301370
#	Creating user name:	WinNT
#	Creation time:	15. 06. 2019 21:11

#	Modifying user name:	WinNT
#	Modification time:	15. 06. 2019 21:11

#	Program:	/corina/corina34_cracker 3.40 0067  02.08.2006

@<TRIPOS>MOLECULE
ASD07301370
  39   40    0    0    0
SMALL
NO_CHARGES


@<TRIPOS>ATOM
   1 C1            -0.0180     1.4729     0.0101 C.2     
   2 C2             0.0021    -0.0041     0.0020 C.ar    
   3 C3             1.2197    -0.6878     0.0369 C.ar    
   4 C4             1.2350    -2.0650     0.0292 C.ar    
   5 C5             0.0397    -2.7751    -0.0133 C.ar    
   6 C6            -1.1745    -2.0973    -0.0486 C.ar    
   7 C7            -1.1968    -0.7201    -0.0348 C.ar    
   8 O8             1.0260     2.0948     0.0472 O.2     
   9 N9            -1.1934     2.1311    -0.0292 N.am    
  10 C10            1.2931    -6.0755    -0.1498 C.2     
  11 C11            0.0687    -6.8840    -0.0344 C.2     
  12 C12           -1.1602    -6.1855     0.0883 C.2     
  13 C13           -1.1202    -4.8318     0.0906 C.2     
  14 N14            0.0586    -4.1713    -0.0210 N.pl3   
  15 N15            1.1895    -4.7641    -0.1338 N.2     
  16 O16            0.1088    -8.1044    -0.0443 O.2     
  17 C17            2.6154    -6.7249    -0.2753 C.2     
  18 C18            3.7820    -5.9362    -0.3853 C.2     
  19 C19            4.9913    -6.5302    -0.5000 C.2     
  20 O20            2.6987    -7.9404    -0.2838 O.2     
  21 N21            6.1189    -5.7679    -0.6063 N.pl3   
  22 C22            6.0186    -4.3064    -0.5960 C.3     
  23 C23            7.4291    -6.4114    -0.7306 C.3     
  24 H24            2.1482    -0.1370     0.0696 H       
  25 H25            2.1761    -2.5942     0.0558 H       
  26 H26           -2.1009    -2.6514    -0.0823 H       
  27 H27           -2.1400    -0.1945    -0.0570 H       
  28 H28           -2.0262     1.6350    -0.0628 H       
  29 H29           -1.2066     3.1010    -0.0238 H       
  30 H30           -2.0968    -6.7160     0.1767 H       
  31 H31           -2.0389    -4.2714     0.1822 H       
  32 H32            3.7081    -4.8588    -0.3777 H       
  33 H33            5.0652    -7.6076    -0.5076 H       
  34 H34            6.0906    -3.9444     0.4296 H       
  35 H35            6.8293    -3.8824    -1.1886 H       
  36 H36            5.0615    -4.0048    -1.0214 H       
  37 H37            7.4454    -7.0322    -1.6265 H       
  38 H38            8.2035    -5.6478    -0.8035 H       
  39 H39            7.6131    -7.0331     0.1456 H       
@<TRIPOS>BOND
   1    1    2 1
   2    1    8 2
   3    1    9 am
   4    2    3 ar
   5    2    7 ar
   6    3    4 ar
   7    3   24 1
   8    4    5 ar
   9    4   25 1
  10    5    6 ar
  11    5   14 1
  12    6    7 ar
  13    6   26 1
  14    7   27 1
  15    9   28 1
  16    9   29 1
  17   10   11 1
  18   10   15 2
  19   10   17 1
  20   11   12 1
  21   11   16 2
  22   12   13 2
  23   12   30 1
  24   13   14 1
  25   13   31 1
  26   14   15 1
  27   17   18 1
  28   17   20 2
  29   18   19 2
  30   18   32 1
  31   19   21 1
  32   19   33 1
  33   21   22 1
  34   21   23 1
  35   22   34 1
  36   22   35 1
  37   22   36 1
  38   23   37 1
  39   23   38 1
  40   23   39 1

#	End of record

