#	Name: ASD01915356
#	Creating user name:	WinNT
#	Creation time:	15. 06. 2019 20:05

#	Modifying user name:	WinNT
#	Modification time:	15. 06. 2019 20:05

#	Program:	/corina/corina34_cracker 3.40 0067  02.08.2006

@<TRIPOS>MOLECULE
ASD01915356
  39   42    0    0    0
SMALL
NO_CHARGES


@<TRIPOS>ATOM
   1 C1            -0.0169     1.3920     0.0097 C.ar    
   2 C2             0.0021    -0.0041     0.0020 C.ar    
   3 N3            -1.1415    -0.6923     0.0099 N.ar    
   4 C4            -2.3142    -0.1035     0.0249 C.ar    
   5 C5            -2.4179     1.2852     0.0330 C.ar    
   6 C6            -1.2649     2.0492     0.0306 C.ar    
   7 C7             1.3287     1.9586    -0.0001 C.2     
   8 C8             2.3061     1.0549    -0.0143 C.2     
   9 S9             1.6664    -0.5766    -0.0169 S.3     
  10 C10            1.5850     3.4181     0.0045 C.ar    
  11 C11            1.2148     4.1898     1.1046 C.ar    
  12 S12            4.0234     1.4488    -0.0291 S.o2    
  13 O13            4.6885     0.3232    -0.5858 O.2     
  14 O14            4.1298     2.7594    -0.5679 O.2     
  15 C15            4.5482     1.5568     1.6495 C.ar    
  16 C16            5.0217     0.4322     2.2991 C.ar    
  17 C17            4.4917     2.7675     2.3145 C.ar    
  18 C18            4.9037     2.8529     3.6310 C.ar    
  19 C19            5.3723     1.7265     4.2835 C.ar    
  20 C20            5.4331     0.5162     3.6159 C.ar    
  21 C21            1.4566     5.5509     1.1028 C.ar    
  22 C22            2.0655     6.1465     0.0101 C.ar    
  23 C23            2.4342     5.3838    -1.0834 C.ar    
  24 C24            2.2028     4.0236    -1.0896 C.ar    
  25 Cl25           5.8899     1.8331     5.9371 Cl      
  26 N26           -3.6751     1.9010     0.0486 N.pl3   
  27 F27            1.0984     6.3012     2.1676 F       
  28 H28           -3.2116    -0.7043     0.0308 H       
  29 H29           -1.3191     3.1278     0.0371 H       
  30 H30            0.7398     3.7256     1.9563 H       
  31 H31            5.0697    -0.5124     1.7777 H       
  32 H32            4.1259     3.6467     1.8051 H       
  33 H33            4.8601     3.7989     4.1503 H       
  34 H34            5.7984    -0.3636     4.1248 H       
  35 H35            2.2525     7.2102     0.0120 H       
  36 H36            2.9086     5.8535    -1.9324 H       
  37 H37            2.4918     3.4299    -1.9442 H       
  38 H38           -4.4802     1.3600     0.0538 H       
  39 H39           -3.7411     2.8688     0.0541 H       
@<TRIPOS>BOND
   1    1    2 ar
   2    1    7 1
   3    1    6 ar
   4    2    3 ar
   5    2    9 1
   6    3    4 ar
   7    4    5 ar
   8    4   28 1
   9    5    6 ar
  10    5   26 1
  11    6   29 1
  12    7    8 2
  13    7   10 1
  14    8    9 1
  15    8   12 1
  16   10   11 ar
  17   10   24 ar
  18   11   21 ar
  19   11   30 1
  20   12   13 2
  21   12   14 2
  22   12   15 1
  23   15   16 ar
  24   15   17 ar
  25   16   20 ar
  26   16   31 1
  27   17   18 ar
  28   17   32 1
  29   18   19 ar
  30   18   33 1
  31   19   20 ar
  32   19   25 1
  33   20   34 1
  34   21   22 ar
  35   21   27 1
  36   22   23 ar
  37   22   35 1
  38   23   24 ar
  39   23   36 1
  40   24   37 1
  41   26   38 1
  42   26   39 1

#	End of record

