#	Name: ASD00990025
#	Creating user name:	WinNT
#	Creation time:	15. 06. 2019 18:54

#	Modifying user name:	WinNT
#	Modification time:	15. 06. 2019 18:54

#	Program:	/corina/corina34_cracker 3.40 0067  02.08.2006

@<TRIPOS>MOLECULE
ASD00990025
  41   44    0    0    0
SMALL
NO_CHARGES


@<TRIPOS>ATOM
   1 C1            -0.0184     1.5028     0.0103 C.2     
   2 C2             0.0021    -0.0041     0.0020 C.3     
   3 O3             1.0236     2.1234     0.0037 O.2     
   4 N4            -1.1946     2.1607     0.0195 N.am    
   5 C5            -2.4532     1.4111     0.0214 C.3     
   6 O6             3.3681    -1.1455     0.6629 O.3     
   7 C7             2.1548    -0.7352     1.0645 C.2     
   8 N8             1.3897    -0.4735    -0.0138 N.am    
   9 C9             2.1600    -0.7321    -1.1472 C.ar    
  10 C10            3.4087    -1.1563    -0.6922 C.ar    
  11 C11            1.9103    -0.6445    -2.5073 C.ar    
  12 C12            2.9018    -0.9785    -3.4113 C.ar    
  13 C13            4.1414    -1.3996    -2.9601 C.ar    
  14 C14            4.3964    -1.4894    -1.6053 C.ar    
  15 O15            1.8007    -0.6181     2.2218 O.2     
  16 Cl16           2.5917    -0.8703    -5.1160 Cl      
  17 C17           -1.2145     3.6256     0.0275 C.3     
  18 C18           -1.2280     4.1356    -1.3905 C.2     
  19 N19           -0.1714     4.3143    -2.1283 N.2     
  20 C20           -0.5404     4.7815    -3.3488 C.ar    
  21 C21           -1.9413     4.8914    -3.3387 C.ar    
  22 N22           -2.3471     4.4705    -2.0874 N.pl3   
  23 C23            0.1690     5.1357    -4.4991 C.ar    
  24 C24           -0.5097     5.5879    -5.6087 C.ar    
  25 C25           -1.8938     5.6949    -5.5931 C.ar    
  26 C26           -2.6085     5.3489    -4.4662 C.ar    
  27 Br27           0.4510     6.0672    -7.1654 Br      
  28 H28           -0.4983    -0.3791     0.8948 H       
  29 H29           -0.5153    -0.3696    -0.8850 H       
  30 H30           -2.7605     1.2195     1.0495 H       
  31 H31           -3.2232     1.9925    -0.4857 H       
  32 H32           -2.3124     0.4633    -0.4983 H       
  33 H33            0.9437    -0.3165    -2.8604 H       
  34 H34            4.9123    -1.6593    -3.6705 H       
  35 H35            5.3648    -1.8181    -1.2581 H       
  36 H36           -2.1068     3.9740     0.5475 H       
  37 H37           -0.3271     3.9982     0.5392 H       
  38 H38           -3.2607     4.4244    -1.7646 H       
  39 H39            1.2459     5.0556    -4.5179 H       
  40 H40           -2.4141     6.0512    -6.4698 H       
  41 H41           -3.6852     5.4338    -4.4608 H       
@<TRIPOS>BOND
   1    1    2 1
   2    1    3 2
   3    1    4 am
   4    2    8 1
   5    2   28 1
   6    2   29 1
   7    4    5 1
   8    4   17 1
   9    5   30 1
  10    5   31 1
  11    5   32 1
  12    6    7 1
  13    6   10 1
  14    7    8 am
  15    7   15 2
  16    8    9 1
  17    9   10 ar
  18    9   11 ar
  19   10   14 ar
  20   11   12 ar
  21   11   33 1
  22   12   13 ar
  23   12   16 1
  24   13   14 ar
  25   13   34 1
  26   14   35 1
  27   17   18 1
  28   17   36 1
  29   17   37 1
  30   18   19 2
  31   18   22 1
  32   19   20 1
  33   20   21 ar
  34   20   23 ar
  35   21   22 1
  36   21   26 ar
  37   22   38 1
  38   23   24 ar
  39   23   39 1
  40   24   25 ar
  41   24   27 1
  42   25   26 ar
  43   25   40 1
  44   26   41 1

#	End of record

