#	Name: ASD04842002
#	Creating user name:	WinNT
#	Creation time:	15. 06. 2019 20:52

#	Modifying user name:	WinNT
#	Modification time:	15. 06. 2019 20:52

#	Program:	/corina/corina34_cracker 3.40 0067  02.08.2006

@<TRIPOS>MOLECULE
ASD04842002
  33   35    0    0    0
SMALL
NO_CHARGES


@<TRIPOS>ATOM
   1 N1            -0.0166     1.3758     0.0096 N.pl3   
   2 C2             0.0123     0.0133    -0.2074 C.2     
   3 C3             1.3039    -0.4149    -0.1489 C.2     
   4 C4             2.1165     0.7116     0.1131 C.ar    
   5 C5             3.5102     0.8719     0.2766 C.ar    
   6 C6             4.0434     2.0893     0.5258 C.ar    
   7 C7             3.2134     3.2272     0.6276 C.ar    
   8 C8             1.8135     3.0951     0.4680 C.ar    
   9 C9             1.2627     1.8189     0.2075 C.ar    
  10 C10            0.9976     4.2300     0.5708 C.ar    
  11 C11            1.5599     5.4465     0.8227 C.ar    
  12 C12            2.9358     5.5776     0.9797 C.ar    
  13 C13            3.7578     4.4939     0.8863 C.ar    
  14 C14           -1.1579    -0.8360    -0.4601 C.2     
  15 O15           -1.0153    -2.0301    -0.6387 O.2     
  16 O16           -2.3914    -0.2917    -0.4941 O.3     
  17 C17           -1.2196     2.2118     0.0201 C.3     
  18 C18           -1.6847     2.3850     1.4059 C.1     
  19 C19           -2.0556     2.5232     2.5112 C.1     
  20 C20           -3.5021    -1.1914    -0.7490 C.3     
  21 H21            1.6453    -1.4312    -0.2789 H       
  22 H22            4.1583     0.0111     0.2020 H       
  23 H23            5.1115     2.1921     0.6482 H       
  24 H24           -0.0721     4.1415     0.4506 H       
  25 H25            0.9288     6.3195     0.9011 H       
  26 H26            3.3587     6.5512     1.1786 H       
  27 H27            4.8243     4.6105     1.0101 H       
  28 H28           -0.9885     3.1863    -0.4101 H       
  29 H29           -2.0013     1.7312    -0.5681 H       
  30 H30           -2.3873     2.6467     3.4997 H       
  31 H31           -3.3666    -1.6704    -1.7187 H       
  32 H32           -3.5393    -1.9526     0.0302 H       
  33 H33           -4.4344    -0.6266    -0.7499 H       
@<TRIPOS>BOND
   1    1    2 1
   2    1    9 1
   3    1   17 1
   4    2    3 2
   5    2   14 1
   6    3    4 1
   7    3   21 1
   8    4    5 ar
   9    4    9 ar
  10    5    6 ar
  11    5   22 1
  12    6    7 ar
  13    6   23 1
  14    7    8 ar
  15    7   13 ar
  16    8    9 ar
  17    8   10 ar
  18   10   11 ar
  19   10   24 1
  20   11   12 ar
  21   11   25 1
  22   12   13 ar
  23   12   26 1
  24   13   27 1
  25   14   15 2
  26   14   16 1
  27   16   20 1
  28   17   18 1
  29   17   28 1
  30   17   29 1
  31   18   19 3
  32   19   30 1
  33   20   31 1
  34   20   32 1
  35   20   33 1

#	End of record

