#	Name: ASD01510089
#	Creating user name:	WinNT
#	Creation time:	15. 06. 2019 19:21

#	Modifying user name:	WinNT
#	Modification time:	15. 06. 2019 19:21

#	Program:	/corina/corina34_cracker 3.40 0067  02.08.2006

@<TRIPOS>MOLECULE
ASD01510089
  57   60    0    0    0
SMALL
NO_CHARGES


@<TRIPOS>ATOM
   1 C1             0.5893     1.7840     0.3107 C.3     
   2 O2             0.3811     0.3705     0.2846 O.3     
   3 C3             0.7746    -0.2894    -0.8332 C.ar    
   4 N4             1.3265     0.3705    -1.8459 N.ar    
   5 C5             1.7132    -0.2661    -2.9408 C.ar    
   6 N6             1.5691    -1.5756    -3.0748 N.ar    
   7 C7             1.0257    -2.3039    -2.1052 C.ar    
   8 C8             0.6107    -1.6710    -0.9335 C.ar    
   9 S9            -0.1151    -2.5919     0.3818 S.3     
  10 C10            1.2766    -3.0468     1.3621 C.ar    
  11 C11            2.5545    -2.6527     0.9821 C.ar    
  12 C12            3.6457    -3.0092     1.7505 C.ar    
  13 C13            3.4713    -3.7585     2.8982 C.ar    
  14 C14            2.1967    -4.1562     3.2838 C.ar    
  15 C15            1.0978    -3.7948     2.5188 C.ar    
  16 N16            2.0217    -4.9157     4.4459 N.am    
  17 C17            2.8056    -4.6948     5.5197 C.2     
  18 O18            3.7171    -3.8975     5.4514 O.2     
  19 C19            2.5496    -5.4383     6.8053 C.3     
  20 C20            3.4742    -5.1434     7.9881 C.3     
  21 C21            2.0327    -4.6307     7.9976 C.3     
  22 O22            0.8818    -3.6448    -2.2506 O.3     
  23 C23            1.3375    -4.2168    -3.4783 C.3     
  24 N24            2.2845     0.4586    -3.9757 N.3     
  25 C25            2.6455    -0.4199    -5.0971 C.3     
  26 C26            3.1978     0.4259    -6.2469 C.3     
  27 N27            4.3666     1.1830    -5.7772 N.3     
  28 C28            4.0055     2.0614    -4.6558 C.3     
  29 C29            3.4532     1.2156    -3.5060 C.3     
  30 C30            4.9718     1.9507    -6.8736 C.3     
  31 H31            1.6530     1.9966     0.2042 H       
  32 H32            0.0422     2.2470    -0.5105 H       
  33 H33            0.2314     2.1865     1.2583 H       
  34 H34            2.6943    -2.0676     0.0852 H       
  35 H35            4.6375    -2.7019     1.4533 H       
  36 H36            4.3267    -4.0357     3.4964 H       
  37 H37            0.1063    -4.1027     2.8164 H       
  38 H38            1.3362    -5.6012     4.4786 H       
  39 H39            2.1860    -6.4597     6.6932 H       
  40 H40            3.7185    -5.9707     8.6544 H       
  41 H41            4.2676    -4.4116     7.8365 H       
  42 H42            1.8777    -3.5617     7.8521 H       
  43 H43            1.3286    -5.1208     8.6701 H       
  44 H44            1.1640    -5.2928    -3.4642 H       
  45 H45            0.7927    -3.7718    -4.3109 H       
  46 H46            2.4035    -4.0222    -3.5962 H       
  47 H47            3.4045    -1.1314    -4.7719 H       
  48 H48            1.7613    -0.9601    -5.4352 H       
  49 H49            3.4933    -0.2262    -7.0688 H       
  50 H50            2.4297     1.1189    -6.5901 H       
  51 H51            4.8898     2.6016    -4.3177 H       
  52 H52            3.2465     2.7730    -4.9810 H       
  53 H53            3.1578     1.8677    -2.6841 H       
  54 H54            4.2214     0.5226    -3.1627 H       
  55 H55            4.2393     2.6516    -7.2740 H       
  56 H56            5.8344     2.5015    -6.4986 H       
  57 H57            5.2908     1.2688    -7.6619 H       
@<TRIPOS>BOND
   1    1    2 1
   2    1   31 1
   3    1   32 1
   4    1   33 1
   5    2    3 1
   6    3    4 ar
   7    3    8 ar
   8    4    5 ar
   9    5    6 ar
  10    5   24 1
  11    6    7 ar
  12    7    8 ar
  13    7   22 1
  14    8    9 1
  15    9   10 1
  16   10   11 ar
  17   10   15 ar
  18   11   12 ar
  19   11   34 1
  20   12   13 ar
  21   12   35 1
  22   13   14 ar
  23   13   36 1
  24   14   15 ar
  25   14   16 1
  26   15   37 1
  27   16   17 am
  28   16   38 1
  29   17   18 2
  30   17   19 1
  31   19   20 1
  32   19   21 1
  33   19   39 1
  34   20   21 1
  35   20   40 1
  36   20   41 1
  37   21   42 1
  38   21   43 1
  39   22   23 1
  40   23   44 1
  41   23   45 1
  42   23   46 1
  43   24   25 1
  44   24   29 1
  45   25   26 1
  46   25   47 1
  47   25   48 1
  48   26   27 1
  49   26   49 1
  50   26   50 1
  51   27   28 1
  52   27   30 1
  53   28   29 1
  54   28   51 1
  55   28   52 1
  56   29   53 1
  57   29   54 1
  58   30   55 1
  59   30   56 1
  60   30   57 1

#	End of record

