#	Name: ASD06660104
#	Creating user name:	WinNT
#	Creation time:	15. 06. 2019 21:08

#	Modifying user name:	WinNT
#	Modification time:	15. 06. 2019 21:08

#	Program:	/corina/corina34_cracker 3.40 0067  02.08.2006

@<TRIPOS>MOLECULE
ASD06660104
  80   84    0    0    0
SMALL
NO_CHARGES


@<TRIPOS>ATOM
   1 C1            -0.5557     1.5652     1.0927 C.2     
   2 C2            -0.3753     0.1318     0.6640 C.3     
   3 C3            -1.3783    -0.1995    -0.4429 C.3     
   4 O4             0.3602     2.3465     0.9892 O.2     
   5 O5            -1.7354     1.9753     1.5844 O.3     
   6 C6            -1.2973    -1.6681    -0.7711 C.ar    
   7 C7            -2.0647    -2.5761    -0.0648 C.ar    
   8 C8            -1.9929    -3.9227    -0.3630 C.ar    
   9 C9            -1.1486    -4.3646    -1.3736 C.ar    
  10 C10           -0.3790    -3.4498    -2.0810 C.ar    
  11 C11           -0.4599    -2.1040    -1.7815 C.ar    
  12 N12           -1.0732    -5.7258    -1.6774 N.3     
  13 C13           -0.1246    -5.9690    -2.7718 C.3     
  14 C14           -0.1756    -7.4446    -3.1743 C.3     
  15 C15            0.1803    -8.3115    -1.9634 C.3     
  16 C16           -0.7927    -8.0039    -0.8218 C.3     
  17 C17           -0.7238    -6.5121    -0.4874 C.3     
  18 C18            0.0719    -9.7897    -2.3433 C.3     
  19 N19            0.5266   -10.6165    -1.2226 N.pl3   
  20 C20            0.5198   -12.0020    -1.3336 C.ar    
  21 C21            0.0798   -12.5973    -2.5117 C.ar    
  22 C22            0.0783   -13.9769    -2.6084 C.ar    
  23 C23            0.5186   -14.7181    -1.5196 C.ar    
  24 C24            0.9415   -14.0617    -0.3814 C.ar    
  25 N25            0.9371   -12.7435    -0.3192 N.ar    
  26 C26            2.0127    -0.1889     1.0268 C.2     
  27 C27            3.3966    -0.2902     0.5219 C.ar    
  28 C28            3.9955    -1.5431     0.3669 C.ar    
  29 C29            5.2861    -1.6338    -0.1047 C.ar    
  30 C30            5.9932    -0.4805    -0.4265 C.ar    
  31 C31            5.4007     0.7678    -0.2732 C.ar    
  32 C32            4.1081     0.8659     0.1926 C.ar    
  33 O33            1.7982    -0.2218     2.2231 O.2     
  34 N34            0.9874    -0.0599     0.1616 N.am    
  35 C35            3.4644     2.2191     0.3522 C.3     
  36 C36            8.0092    -1.7209    -1.1058 C.2     
  37 N37            9.1918    -1.4059    -1.5583 N.2     
  38 C38            9.2873    -0.0718    -1.6630 C.2     
  39 C39            8.1207     0.4664    -1.2608 C.2     
  40 N40            7.3038    -0.5765    -0.9053 N.pl3   
  41 C41            3.2302    -2.7935     0.7159 C.3     
  42 C42            2.4082    -3.2427    -0.4938 C.3     
  43 H43           -0.5443    -0.5264     1.5163 H       
  44 H44           -2.3858     0.0421    -0.1045 H       
  45 H45           -1.1438     0.3850    -1.3325 H       
  46 H46           -1.8031     2.9038     1.8460 H       
  47 H47           -2.7208    -2.2319     0.7210 H       
  48 H48           -2.5923    -4.6314     0.1892 H       
  49 H49            0.2785    -3.7901    -2.8674 H       
  50 H50            0.1346    -1.3917    -2.3343 H       
  51 H51           -0.3915    -5.3495    -3.6280 H       
  52 H52            0.8832    -5.7172    -2.4416 H       
  53 H53           -1.1797    -7.6937    -3.5177 H       
  54 H54            0.5398    -7.6280    -3.9760 H       
  55 H55            1.1986    -8.0904    -1.6437 H       
  56 H56           -1.8064    -8.2618    -1.1282 H       
  57 H57           -0.5182    -8.5869     0.0573 H       
  58 H58            0.2868    -6.2578    -0.1679 H       
  59 H59           -1.4259    -6.2871     0.3155 H       
  60 H60           -0.9658   -10.0302    -2.5746 H       
  61 H61            0.6939    -9.9870    -3.2163 H       
  62 H62            0.8325   -10.1970    -0.4033 H       
  63 H63           -0.2564   -11.9902    -3.3393 H       
  64 H64           -0.2580   -14.4668    -3.5102 H       
  65 H65            0.5295   -15.7972    -1.5628 H       
  66 H66            1.2847   -14.6343     0.4676 H       
  67 H67            5.7498    -2.6018    -0.2244 H       
  68 H68            5.9531     1.6614    -0.5235 H       
  69 H69            1.1518    -0.0940    -0.7937 H       
  70 H70            3.6645     2.6009     1.3533 H       
  71 H71            3.8750     2.9063    -0.3876 H       
  72 H72            2.3880     2.1288     0.2062 H       
  73 H73            7.6495    -2.7231    -0.9253 H       
  74 H74           10.1511     0.4759    -2.0097 H       
  75 H75            7.8752     1.5175    -1.2250 H       
  76 H76            3.9297    -3.5822     0.9930 H       
  77 H77            2.5628    -2.5892     1.5531 H       
  78 H78            3.0797    -3.5431    -1.2981 H       
  79 H79            1.7784    -4.0866    -0.2120 H       
  80 H80            1.7808    -2.4185    -0.8331 H       
@<TRIPOS>BOND
   1    1    2 1
   2    1    4 2
   3    1    5 1
   4    2    3 1
   5    2   34 1
   6    2   43 1
   7    3    6 1
   8    3   44 1
   9    3   45 1
  10    5   46 1
  11    6    7 ar
  12    6   11 ar
  13    7    8 ar
  14    7   47 1
  15    8    9 ar
  16    8   48 1
  17    9   10 ar
  18    9   12 1
  19   10   11 ar
  20   10   49 1
  21   11   50 1
  22   12   13 1
  23   12   17 1
  24   13   14 1
  25   13   51 1
  26   13   52 1
  27   14   15 1
  28   14   53 1
  29   14   54 1
  30   15   16 1
  31   15   18 1
  32   15   55 1
  33   16   17 1
  34   16   56 1
  35   16   57 1
  36   17   58 1
  37   17   59 1
  38   18   19 1
  39   18   60 1
  40   18   61 1
  41   19   20 1
  42   19   62 1
  43   20   21 ar
  44   20   25 ar
  45   21   22 ar
  46   21   63 1
  47   22   23 ar
  48   22   64 1
  49   23   24 ar
  50   23   65 1
  51   24   25 ar
  52   24   66 1
  53   26   27 1
  54   26   33 2
  55   26   34 am
  56   27   28 ar
  57   27   32 ar
  58   28   29 ar
  59   28   41 1
  60   29   30 ar
  61   29   67 1
  62   30   31 ar
  63   30   40 1
  64   31   32 ar
  65   31   68 1
  66   32   35 1
  67   34   69 1
  68   35   70 1
  69   35   71 1
  70   35   72 1
  71   36   37 2
  72   36   40 1
  73   36   73 1
  74   37   38 1
  75   38   39 2
  76   38   74 1
  77   39   40 1
  78   39   75 1
  79   41   42 1
  80   41   76 1
  81   41   77 1
  82   42   78 1
  83   42   79 1
  84   42   80 1

#	End of record

