#	Name: ASD00120003
#	Creating user name:	WinNT
#	Creation time:	15. 06. 2019 18:31

#	Modifying user name:	WinNT
#	Modification time:	15. 06. 2019 18:31

#	Program:	/corina/corina34_cracker 3.40 0067  02.08.2006

@<TRIPOS>MOLECULE
ASD00120003
  14   14    0    0    0
SMALL
NO_CHARGES


@<TRIPOS>ATOM
   1 C1            -0.0168     1.3873     0.0097 C.ar    
   2 C2             0.0021    -0.0041     0.0020 C.ar    
   3 C3            -1.1902    -0.7101     0.0096 C.ar    
   4 C4            -2.3949    -0.0322     0.0247 C.ar    
   5 C5            -2.4136     1.3502     0.0318 C.ar    
   6 C6            -1.2277     2.0606     0.0306 C.ar    
   7 O7             1.1507     2.0847     0.0023 O.3     
   8 O8             1.1880    -0.6694    -0.0133 O.3     
   9 H9            -1.1783    -1.7900     0.0033 H       
  10 H10           -3.3234    -0.5837     0.0305 H       
  11 H11           -3.3568     1.8762     0.0429 H       
  12 H12           -1.2451     3.1405     0.0366 H       
  13 H13            1.4799     2.2912    -0.8832 H       
  14 H14            1.5398    -0.8666     0.8656 H       
@<TRIPOS>BOND
   1    1    2 ar
   2    1    7 1
   3    1    6 ar
   4    2    3 ar
   5    2    8 1
   6    3    4 ar
   7    3    9 1
   8    4    5 ar
   9    4   10 1
  10    5    6 ar
  11    5   11 1
  12    6   12 1
  13    7   13 1
  14    8   14 1

#	End of record

