#	Name: ASD02038623
#	Creating user name:	WinNT
#	Creation time:	15. 06. 2019 20:17

#	Modifying user name:	WinNT
#	Modification time:	15. 06. 2019 20:17

#	Program:	/corina/corina34_cracker 3.40 0067  02.08.2006

@<TRIPOS>MOLECULE
ASD02038623
  49   50    0    0    0
SMALL
NO_CHARGES


@<TRIPOS>ATOM
   1 C1            -0.5357     1.7839     0.9379 C.ar    
   2 C2            -0.4595     0.4066     0.7762 C.ar    
   3 N3            -1.6272    -0.3606     0.7499 N.pl3   
   4 C4            -1.5454    -1.8133     0.5792 C.3     
   5 C5            -2.9553    -2.4077     0.5854 C.3     
   6 C6            -2.8699    -3.9248     0.4071 C.3     
   7 N7            -4.2198    -4.4940     0.4131 N.am    
   8 C8            -4.3915    -5.8231     0.2699 C.2     
   9 C9            -5.7801    -6.4085     0.2760 C.3     
  10 O10           -5.7004    -7.8255     0.1095 O.3     
  11 C11           -6.8741    -8.5122     0.0927 C.ar    
  12 C12           -6.8688    -9.8902    -0.0654 C.ar    
  13 C13           -8.0756    -7.8349     0.2394 C.ar    
  14 C14           -9.2680    -8.5315     0.2229 C.ar    
  15 C15           -9.2639    -9.9104     0.0590 C.ar    
  16 C16           -8.0603   -10.5883    -0.0826 C.ar    
  17 N17          -10.4716   -10.6170     0.0422 N.am    
  18 S18          -11.4482   -10.5559    -1.2938 S.o2    
  19 O19          -12.5494   -11.3903    -0.9614 O.2     
  20 O20          -11.6277    -9.1668    -1.5334 O.2     
  21 C21          -10.4565   -11.3066    -2.6142 C.3     
  22 O22           -3.4283    -6.5479     0.1361 O.2     
  23 C23            0.6198     2.5405     0.9632 C.ar    
  24 C24            1.8527     1.9279     0.8276 C.ar    
  25 C25            1.9322     0.5545     0.6657 C.ar    
  26 C26            0.7792    -0.2069     0.6402 C.ar    
  27 Cl27           3.4811    -0.2107     0.4952 Cl      
  28 Cl28           3.3026     2.8820     0.8599 Cl      
  29 H29           -1.4979     2.2636     1.0394 H       
  30 H30           -2.4918     0.0687     0.8446 H       
  31 H31           -1.0594    -2.0409    -0.3696 H       
  32 H32           -0.9663    -2.2432     1.3964 H       
  33 H33           -3.4413    -2.1801     1.5341 H       
  34 H34           -3.5344    -1.9778    -0.2319 H       
  35 H35           -2.3838    -4.1524    -0.5416 H       
  36 H36           -2.2908    -4.3547     1.2244 H       
  37 H37           -4.9901    -3.9142     0.5201 H       
  38 H38           -6.2661    -6.1809     1.2247 H       
  39 H39           -6.3592    -5.9786    -0.5413 H       
  40 H40           -5.9326   -10.4173    -0.1755 H       
  41 H41           -8.0786    -6.7624     0.3669 H       
  42 H42          -10.2034    -8.0040     0.3378 H       
  43 H43           -8.0562   -11.6608    -0.2101 H       
  44 H44          -10.7367   -11.1427     0.8131 H       
  45 H45          -10.1288   -12.2986    -2.3032 H       
  46 H46          -11.0591   -11.3900    -3.5186 H       
  47 H47           -9.5856   -10.6823    -2.8141 H       
  48 H48            0.5606     3.6116     1.0887 H       
  49 H49            0.8412    -1.2777     0.5139 H       
@<TRIPOS>BOND
   1    1    2 ar
   2    1   23 ar
   3    1   29 1
   4    2    3 1
   5    2   26 ar
   6    3    4 1
   7    3   30 1
   8    4    5 1
   9    4   31 1
  10    4   32 1
  11    5    6 1
  12    5   33 1
  13    5   34 1
  14    6    7 1
  15    6   35 1
  16    6   36 1
  17    7    8 am
  18    7   37 1
  19    8    9 1
  20    8   22 2
  21    9   10 1
  22    9   38 1
  23    9   39 1
  24   10   11 1
  25   11   12 ar
  26   11   13 ar
  27   12   16 ar
  28   12   40 1
  29   13   14 ar
  30   13   41 1
  31   14   15 ar
  32   14   42 1
  33   15   16 ar
  34   15   17 1
  35   16   43 1
  36   17   18 am
  37   17   44 1
  38   18   19 2
  39   18   20 2
  40   18   21 1
  41   21   45 1
  42   21   46 1
  43   21   47 1
  44   23   24 ar
  45   23   48 1
  46   24   25 ar
  47   24   28 1
  48   25   26 ar
  49   25   27 1
  50   26   49 1

#	End of record

