#	Name: ASD04230045
#	Creating user name:	WinNT
#	Creation time:	15. 06. 2019 20:48

#	Modifying user name:	WinNT
#	Modification time:	15. 06. 2019 20:48

#	Program:	/corina/corina34_cracker 3.40 0067  02.08.2006

@<TRIPOS>MOLECULE
ASD04230045
  30   32    0    0    0
SMALL
NO_CHARGES


@<TRIPOS>ATOM
   1 N1            -0.0169     1.3927     0.0097 N.pl3   
   2 C2             0.0021    -0.0041     0.0020 C.ar    
   3 C3             1.2125    -0.6815    -0.0132 C.ar    
   4 C4             1.2262    -2.0736    -0.0203 C.ar    
   5 C5             0.0237    -2.7790    -0.0121 C.ar    
   6 C6            -1.1767    -2.0975     0.0030 C.ar    
   7 C7            -1.1916    -0.7155     0.0154 C.ar    
   8 O8             6.1280    -4.8212    -0.0892 O.3     
   9 C9             6.1123    -6.2044     0.2798 C.3     
  10 C10            4.9496    -6.8846    -0.4555 C.3     
  11 O11            3.7332    -6.2394    -0.0635 O.3     
  12 C12            3.7363    -4.8781    -0.0597 C.ar    
  13 C13            4.9334    -4.1689    -0.0699 C.ar    
  14 C14            2.5306    -4.1980    -0.0442 C.ar    
  15 C15            2.5172    -2.8046    -0.0370 C.ar    
  16 C16            3.7187    -2.0995    -0.0452 C.ar    
  17 C17            4.9183    -2.7811    -0.0616 C.ar    
  18 H18            0.8165     1.8891     0.0044 H       
  19 H19           -0.8634     1.8662     0.0163 H       
  20 H20            2.1415    -0.1307    -0.0198 H       
  21 H21            0.0313    -3.8589    -0.0180 H       
  22 H22           -2.1071    -2.6460     0.0093 H       
  23 H23           -2.1334    -0.1872     0.0317 H       
  24 H24            7.0536    -6.6724    -0.0084 H       
  25 H25            5.9702    -6.2960     1.3566 H       
  26 H26            5.0876    -6.7860    -1.5322 H       
  27 H27            4.9101    -7.9396    -0.1844 H       
  28 H28            1.6006    -4.7471    -0.0380 H       
  29 H29            3.7112    -1.0195    -0.0391 H       
  30 H30            5.8487    -2.2328    -0.0676 H       
@<TRIPOS>BOND
   1    1    2 1
   2    1   18 1
   3    1   19 1
   4    2    3 ar
   5    2    7 ar
   6    3    4 ar
   7    3   20 1
   8    4    5 ar
   9    4   15 1
  10    5    6 ar
  11    5   21 1
  12    6    7 ar
  13    6   22 1
  14    7   23 1
  15    8    9 1
  16    8   13 1
  17    9   10 1
  18    9   24 1
  19    9   25 1
  20   10   11 1
  21   10   26 1
  22   10   27 1
  23   11   12 1
  24   12   13 ar
  25   12   14 ar
  26   13   17 ar
  27   14   15 ar
  28   14   28 1
  29   15   16 ar
  30   16   17 ar
  31   16   29 1
  32   17   30 1

#	End of record

