#	Name: ASD01122011
#	Creating user name:	WinNT
#	Creation time:	15. 06. 2019 18:59

#	Modifying user name:	WinNT
#	Modification time:	15. 06. 2019 18:59

#	Program:	/corina/corina34_cracker 3.40 0067  02.08.2006

@<TRIPOS>MOLECULE
ASD01122011
  35   37    0    0    0
SMALL
NO_CHARGES


@<TRIPOS>ATOM
   1 C1            -0.0168     1.3848     0.0097 C.ar    
   2 C2            -0.0690     4.1192     0.0239 C.ar    
   3 C3            -1.2437     3.3478     0.0257 C.ar    
   4 N4            -1.1767     2.0202     0.0186 N.ar    
   5 C5            -2.5585     4.0150     0.0361 C.2     
   6 C6            -3.6830     3.5751    -0.5927 C.2     
   7 C7            -4.6953     4.5138    -0.3166 C.2     
   8 C8            -4.1465     5.4708     0.4586 C.2     
   9 O9            -2.8578     5.1634     0.6743 O.3     
  10 C10           -0.1407     5.5990     0.0318 C.ar    
  11 N11            0.0021    -0.0041     0.0020 N.pl3   
  12 C12            0.6043     6.3310     0.9559 C.ar    
  13 C13            0.5337     7.7091     0.9580 C.ar    
  14 C14           -0.2740     8.3645     0.0460 C.ar    
  15 C15           -1.0158     7.6438    -0.8728 C.ar    
  16 C16           -0.9490     6.2656    -0.8885 C.ar    
  17 C17            1.1867     2.0872     0.0019 C.ar    
  18 C18            1.1679     3.4687     0.0091 C.ar    
  19 P19           -5.0088     6.9285     1.1083 P.3     
  20 O20           -6.0631     6.4975     2.0533 O.2     
  21 O21           -3.9571     7.8772     1.8738 O.3     
  22 O22           -5.6789     7.7423    -0.1085 O.3     
  23 H23           -3.7797     2.6794    -1.1884 H       
  24 H24           -5.7182     4.4747    -0.6608 H       
  25 H25            0.8486    -0.4776    -0.0086 H       
  26 H26           -0.8313    -0.5005     0.0073 H       
  27 H27            1.2349     5.8204     1.6686 H       
  28 H28            1.1099     8.2771     1.6734 H       
  29 H29           -0.3260     9.4433     0.0515 H       
  30 H30           -1.6448     8.1610    -1.5822 H       
  31 H31           -1.5285     5.7039    -1.6062 H       
  32 H32            2.1268     1.5558    -0.0092 H       
  33 H33            2.0886     4.0333     0.0073 H       
  34 H34           -4.3497     8.6779     2.2479 H       
  35 H35           -5.0451     8.0561    -0.7681 H       
@<TRIPOS>BOND
   1    1   11 1
   2    1   17 ar
   3    1    4 ar
   4    2    3 ar
   5    2   10 1
   6    2   18 ar
   7    3    4 ar
   8    3    5 1
   9    5    6 2
  10    5    9 1
  11    6    7 1
  12    6   23 1
  13    7    8 2
  14    7   24 1
  15    8    9 1
  16    8   19 1
  17   10   12 ar
  18   10   16 ar
  19   11   25 1
  20   11   26 1
  21   12   13 ar
  22   12   27 1
  23   13   14 ar
  24   13   28 1
  25   14   15 ar
  26   14   29 1
  27   15   16 ar
  28   15   30 1
  29   16   31 1
  30   17   18 ar
  31   17   32 1
  32   18   33 1
  33   19   20 2
  34   19   21 1
  35   19   22 1
  36   21   34 1
  37   22   35 1

#	End of record

