#	Name: ASD02500028
#	Creating user name:	WinNT
#	Creation time:	15. 06. 2019 20:22

#	Modifying user name:	WinNT
#	Modification time:	15. 06. 2019 20:22

#	Program:	/corina/corina34_cracker 3.40 0067  02.08.2006

@<TRIPOS>MOLECULE
ASD02500028
  64   67    0    0    0
SMALL
NO_CHARGES


@<TRIPOS>ATOM
   1 C1             0.9282     0.5302     4.7914 C.ar    
   2 C2             0.1092     1.4354     5.4410 C.ar    
   3 C3             0.2642     2.7922     5.2252 C.ar    
   4 C4             1.2387     3.2508     4.3589 C.ar    
   5 C5             2.0643     2.3485     3.7040 C.ar    
   6 C6             1.9074     0.9815     3.9220 C.ar    
   7 O7             2.7143     0.0922     3.2831 O.3     
   8 C8             2.4959    -1.2935     3.5551 C.3     
   9 N9             3.0516     2.8103     2.8259 N.3     
  10 C10            4.3950     2.5300     3.3499 C.3     
  11 C11            5.4390     2.8837     2.2853 C.3     
  12 N12            5.2162     4.2727     1.8558 N.am    
  13 C13            3.8593     4.6652     1.4461 C.3     
  14 C14            2.8775     4.2414     2.5437 C.3     
  15 C15            6.2287     5.1620     1.8379 C.2     
  16 O16            7.3183     4.8518     2.2796 O.2     
  17 C17            6.0151     6.5119     1.2823 C.ar    
  18 C18            6.6218     7.6198     1.8811 C.ar    
  19 C19            6.4205     8.8777     1.3606 C.ar    
  20 C20            5.6136     9.0475     0.2388 C.ar    
  21 C21            5.0080     7.9460    -0.3598 C.ar    
  22 C22            5.2101     6.6850     0.1526 C.ar    
  23 N23            5.4119    10.3197    -0.2845 N.am    
  24 S24            5.5231    10.5705    -1.9176 S.o2    
  25 O25            5.3820    11.9701    -2.1192 O.2     
  26 C26            7.1687    10.1622    -2.3971 C.ar    
  27 C27            7.3976     9.0914    -3.2389 C.ar    
  28 C28            8.6898     8.7706    -3.6162 C.ar    
  29 C29            9.7547     9.5212    -3.1508 C.ar    
  30 C30            9.5298    10.5931    -2.3086 C.ar    
  31 C31            8.2348    10.9197    -1.9340 C.ar    
  32 Cl32           8.9750     7.4242    -4.6743 Cl      
  33 O33            8.0115    11.9738    -1.1055 O.3     
  34 C34            9.1439    12.7682    -0.7467 C.3     
  35 C35            8.7209    13.8285     0.2720 C.3     
  36 O36            4.6761     9.6078    -2.5300 O.2     
  37 H37            0.8071    -0.5288     4.9653 H       
  38 H38           -0.6538     1.0816     6.1185 H       
  39 H39           -0.3780     3.4955     5.7345 H       
  40 H40            1.3572     4.3111     4.1916 H       
  41 H41            1.4790    -1.5638     3.2706 H       
  42 H42            3.2046    -1.8922     2.9828 H       
  43 H43            2.6377    -1.4817     4.6193 H       
  44 H44            4.5693     3.1294     4.2435 H       
  45 H45            4.4745     1.4721     3.5999 H       
  46 H46            6.4394     2.7869     2.7071 H       
  47 H47            5.3322     2.2148     1.4313 H       
  48 H48            3.8153     5.7462     1.3129 H       
  49 H49            3.6007     4.1676     0.5114 H       
  50 H50            1.8565     4.4245     2.2090 H       
  51 H51            3.0729     4.8169     3.4485 H       
  52 H52            7.2475     7.4888     2.7516 H       
  53 H53            6.8887     9.7341     1.8229 H       
  54 H54            4.3824     8.0810    -1.2297 H       
  55 H55            4.7403     5.8309    -0.3124 H       
  56 H56            5.2059    11.0604     0.3070 H       
  57 H57            6.5676     8.5038    -3.6027 H       
  58 H58           10.7626     9.2688    -3.4458 H       
  59 H59           10.3613    11.1788    -1.9455 H       
  60 H60            9.9115    12.1299    -0.3092 H       
  61 H61            9.5414    13.2570    -1.6361 H       
  62 H62            8.0190    14.5203    -0.1938 H       
  63 H63            8.2426    13.3441     1.1233 H       
  64 H64            9.5995    14.3765     0.6122 H       
@<TRIPOS>BOND
   1    1    2 ar
   2    1    6 ar
   3    1   37 1
   4    2    3 ar
   5    2   38 1
   6    3    4 ar
   7    3   39 1
   8    4    5 ar
   9    4   40 1
  10    5    6 ar
  11    5    9 1
  12    6    7 1
  13    7    8 1
  14    8   41 1
  15    8   42 1
  16    8   43 1
  17    9   10 1
  18    9   14 1
  19   10   11 1
  20   10   44 1
  21   10   45 1
  22   11   12 1
  23   11   46 1
  24   11   47 1
  25   12   13 1
  26   12   15 am
  27   13   14 1
  28   13   48 1
  29   13   49 1
  30   14   50 1
  31   14   51 1
  32   15   16 2
  33   15   17 1
  34   17   18 ar
  35   17   22 ar
  36   18   19 ar
  37   18   52 1
  38   19   20 ar
  39   19   53 1
  40   20   21 ar
  41   20   23 1
  42   21   22 ar
  43   21   54 1
  44   22   55 1
  45   23   24 am
  46   23   56 1
  47   24   25 2
  48   24   26 1
  49   24   36 2
  50   26   27 ar
  51   26   31 ar
  52   27   28 ar
  53   27   57 1
  54   28   29 ar
  55   28   32 1
  56   29   30 ar
  57   29   58 1
  58   30   31 ar
  59   30   59 1
  60   31   33 1
  61   33   34 1
  62   34   35 1
  63   34   60 1
  64   34   61 1
  65   35   62 1
  66   35   63 1
  67   35   64 1

#	End of record

