#	Name: ASD00240010
#	Creating user name:	WinNT
#	Creation time:	15. 06. 2019 18:33

#	Modifying user name:	WinNT
#	Modification time:	15. 06. 2019 18:33

#	Program:	/corina/corina34_cracker 3.40 0067  02.08.2006

@<TRIPOS>MOLECULE
ASD00240010
  35   38    0    0    0
SMALL
NO_CHARGES


@<TRIPOS>ATOM
   1 C1            -0.0170     1.4007     0.0097 C.ar    
   2 C2             0.0021    -0.0041     0.0020 C.ar    
   3 N3            -1.1507    -0.6658     0.0101 N.ar    
   4 C4            -2.2961    -0.0178     0.0252 C.ar    
   5 N5            -2.3644     1.3012     0.0329 N.ar    
   6 C6            -1.2648     2.0472     0.0302 C.ar    
   7 N7             1.2719     1.8175    -0.0003 N.2     
   8 C8             2.0616     0.7832    -0.0134 C.2     
   9 N9             1.3258    -0.3643    -0.0126 N.pl3   
  10 N10           -1.3463     3.4286     0.0389 N.pl3   
  11 C11            1.8520    -1.7315    -0.0245 C.3     
  12 O12            3.1962    -1.7575     0.5033 O.3     
  13 C13            3.7914    -2.9666    -0.0194 C.3     
  14 C14            3.2787    -3.0933    -1.4462 C.3     
  15 C15            1.9877    -2.2431    -1.4768 C.3     
  16 O16            4.1618    -2.7146    -2.4351 O.3     
  17 O17            0.8632    -3.0501    -1.8322 O.3     
  18 C18            5.2674    -2.9804     0.2410 C.3     
  19 O19            6.0834    -3.8364    -0.5020 O.3     
  20 P20            6.5298    -3.5843    -2.0480 P.3     
  21 O21            7.4641    -4.6436    -2.4901 O.2     
  22 O22            5.1798    -3.6483    -2.8990 O.3     
  23 O23            7.2188    -2.1371    -2.1995 O.3     
  24 H24           -3.2147    -0.5858     0.0310 H       
  25 H25            3.1407     0.8274    -0.0238 H       
  26 H26           -2.2135     3.8632     0.0471 H       
  27 H27           -0.5364     3.9623     0.0368 H       
  28 H28            1.2048    -2.3915     0.5531 H       
  29 H29            3.3661    -3.7946     0.5477 H       
  30 H30            3.0063    -4.1341    -1.6215 H       
  31 H31            2.0953    -1.4079    -2.1688 H       
  32 H32            0.0178    -2.5814    -1.8028 H       
  33 H33            5.6357    -1.9654     0.0915 H       
  34 H34            5.4117    -3.2226     1.2939 H       
  35 H35            7.5059    -1.9304    -3.0995 H       
@<TRIPOS>BOND
   1    1    2 ar
   2    1    7 1
   3    1    6 ar
   4    2    3 ar
   5    2    9 1
   6    3    4 ar
   7    4    5 ar
   8    4   24 1
   9    5    6 ar
  10    6   10 1
  11    7    8 2
  12    8    9 1
  13    8   25 1
  14    9   11 1
  15   10   26 1
  16   10   27 1
  17   11   12 1
  18   11   15 1
  19   11   28 1
  20   12   13 1
  21   13   14 1
  22   13   18 1
  23   13   29 1
  24   14   15 1
  25   14   16 1
  26   14   30 1
  27   15   17 1
  28   15   31 1
  29   16   22 1
  30   17   32 1
  31   18   19 1
  32   18   33 1
  33   18   34 1
  34   19   20 1
  35   20   21 2
  36   20   22 1
  37   20   23 1
  38   23   35 1

#	End of record

