#	Name: ASD05940085
#	Creating user name:	WinNT
#	Creation time:	15. 06. 2019 21:04

#	Modifying user name:	WinNT
#	Modification time:	15. 06. 2019 21:04

#	Program:	/corina/corina34_cracker 3.40 0067  02.08.2006

@<TRIPOS>MOLECULE
ASD05940085
  63   66    0    0    0
SMALL
NO_CHARGES


@<TRIPOS>ATOM
   1 N1             0.2069     1.5599     0.6879 N.ar    
   2 C2             0.1233     0.2412     0.6364 C.ar    
   3 N3             1.1810    -0.5236     0.4158 N.ar    
   4 C4             2.3820     0.0188     0.2362 C.ar    
   5 C5             2.5070     1.4069     0.2688 C.ar    
   6 C6             1.3745     2.1785     0.5094 C.ar    
   7 N7             1.4583     3.5633     0.5620 N.pl3   
   8 O8            -1.0845    -0.3466     0.8158 O.3     
   9 C9            -2.1980     0.5176     1.0514 C.3     
  10 C10           -3.4656    -0.3206     1.2286 C.3     
  11 N11            3.5016    -0.7711     0.0422 N.3     
  12 C12            3.9179    -0.8145    -1.3627 C.3     
  13 C13            3.8786     0.5827    -1.9752 C.3     
  14 C14            4.4760     1.5904    -1.0299 C.2     
  15 N15            3.7613     1.9995     0.0414 N.am    
  16 O16            5.5889     2.0309    -1.2278 O.2     
  17 C17            3.2884    -2.1253     0.5702 C.3     
  18 C18            4.4876    -2.9819     0.2550 C.ar    
  19 C19            5.5911    -2.9589     1.0869 C.ar    
  20 C20            6.6912    -3.7447     0.7978 C.ar    
  21 C21            6.6874    -4.5537    -0.3229 C.ar    
  22 C22            5.5832    -4.5773    -1.1546 C.ar    
  23 C23            4.4816    -3.7950    -0.8632 C.ar    
  24 C24            5.5791    -5.4590    -2.3768 C.3     
  25 C25           -4.6577     0.6047     1.4809 C.3     
  26 C26           -5.9253    -0.2336     1.6581 C.3     
  27 N27            5.0372    -6.7788    -2.0267 N.3     
  28 C28            4.7952    -7.5880    -3.2352 C.3     
  29 C29            5.5965    -8.8973    -3.0767 C.3     
  30 C30            5.7925    -9.0034    -1.5414 C.3     
  31 C31            5.9668    -7.5162    -1.1447 C.3     
  32 H32            2.3129     4.0028     0.4304 H       
  33 H33            0.6622     4.0913     0.7304 H       
  34 H34           -2.0197     1.1020     1.9541 H       
  35 H35           -2.3225     1.1895     0.2023 H       
  36 H36           -3.6439    -0.9050     0.3260 H       
  37 H37           -3.3411    -0.9926     2.0778 H       
  38 H38            4.9332    -1.2062    -1.4251 H       
  39 H39            3.2456    -1.4694    -1.9171 H       
  40 H40            4.4451     0.5832    -2.9065 H       
  41 H41            2.8440     0.8548    -2.1842 H       
  42 H42            4.1043     2.6838     0.6373 H       
  43 H43            3.1504    -2.0766     1.6503 H       
  44 H44            2.4008    -2.5592     0.1097 H       
  45 H45            5.5941    -2.3268     1.9626 H       
  46 H46            7.5538    -3.7262     1.4474 H       
  47 H47            7.5470    -5.1670    -0.5492 H       
  48 H48            3.6191    -3.8135    -1.5128 H       
  49 H49            4.9593    -5.0052    -3.1501 H       
  50 H50            6.5981    -5.5712    -2.7472 H       
  51 H51           -4.4794     1.1890     2.3836 H       
  52 H52           -4.7822     1.2766     0.6318 H       
  53 H53           -6.7746     0.4256     1.8379 H       
  54 H54           -6.1036    -0.8179     0.7555 H       
  55 H55           -5.8009    -0.9055     2.5073 H       
  56 H56            3.7323    -7.8123    -3.3245 H       
  57 H57            5.1379    -7.0481    -4.1179 H       
  58 H58            5.0254    -9.7465    -3.4519 H       
  59 H59            6.5586    -8.8242    -3.5839 H       
  60 H60            4.9123    -9.4343    -1.0643 H       
  61 H61            6.6863    -9.5790    -1.3007 H       
  62 H62            6.9931    -7.1942    -1.3209 H       
  63 H63            5.6959    -7.3681    -0.0993 H       
@<TRIPOS>BOND
   1    1    2 ar
   2    1    6 ar
   3    2    3 ar
   4    2    8 1
   5    3    4 ar
   6    4    5 ar
   7    4   11 1
   8    5    6 ar
   9    5   15 1
  10    6    7 1
  11    7   32 1
  12    7   33 1
  13    8    9 1
  14    9   10 1
  15    9   34 1
  16    9   35 1
  17   10   25 1
  18   10   36 1
  19   10   37 1
  20   11   12 1
  21   11   17 1
  22   12   13 1
  23   12   38 1
  24   12   39 1
  25   13   14 1
  26   13   40 1
  27   13   41 1
  28   14   15 am
  29   14   16 2
  30   15   42 1
  31   17   18 1
  32   17   43 1
  33   17   44 1
  34   18   19 ar
  35   18   23 ar
  36   19   20 ar
  37   19   45 1
  38   20   21 ar
  39   20   46 1
  40   21   22 ar
  41   21   47 1
  42   22   23 ar
  43   22   24 1
  44   23   48 1
  45   24   27 1
  46   24   49 1
  47   24   50 1
  48   25   26 1
  49   25   51 1
  50   25   52 1
  51   26   53 1
  52   26   54 1
  53   26   55 1
  54   27   28 1
  55   27   31 1
  56   28   29 1
  57   28   56 1
  58   28   57 1
  59   29   30 1
  60   29   58 1
  61   29   59 1
  62   30   31 1
  63   30   60 1
  64   30   61 1
  65   31   62 1
  66   31   63 1

#	End of record

