#	Name: ASD01911479
#	Creating user name:	WinNT
#	Creation time:	15. 06. 2019 19:57

#	Modifying user name:	WinNT
#	Modification time:	15. 06. 2019 19:57

#	Program:	/corina/corina34_cracker 3.40 0067  02.08.2006

@<TRIPOS>MOLECULE
ASD01911479
  43   46    0    0    0
SMALL
NO_CHARGES


@<TRIPOS>ATOM
   1 N1            -0.0010     1.3438    -0.1586 N.am    
   2 C2             0.0224     0.0019    -0.2213 C.2     
   3 N3             1.2363    -0.5292    -0.0127 N.am    
   4 C4             2.2030     0.5566     0.2290 C.3     
   5 C5             1.3475     1.8215     0.1267 C.3     
   6 C6             1.8661     2.7648    -0.9627 C.3     
   7 C7             1.6609     4.1962    -0.4293 C.3     
   8 C8             1.0045     4.0580     0.9609 C.3     
   9 C9             1.3983     2.6337     1.4315 C.3     
  10 O10           -0.9662    -0.6693    -0.4457 O.2     
  11 C11            1.5352    -1.8894    -0.0222 C.ar    
  12 C12            0.4993    -2.8194    -0.0169 C.ar    
  13 C13            0.8014    -4.1659    -0.0264 C.ar    
  14 C14            2.1523    -4.5458    -0.0410 C.ar    
  15 C15            3.1344    -3.5534    -0.0454 C.ar    
  16 N16            2.8006    -2.2793    -0.0415 N.ar    
  17 C17            2.5179    -5.9303    -0.0508 C.1     
  18 C18            2.8176    -7.0654    -0.0588 C.1     
  19 C19            3.1832    -8.4499    -0.0686 C.ar    
  20 C20            4.5307    -8.8202    -0.0831 C.ar    
  21 C21            4.8752   -10.1556    -0.0920 C.ar    
  22 C22            3.8904   -11.1278    -0.0865 C.ar    
  23 C23            2.5541   -10.7687    -0.0726 C.ar    
  24 C24            2.1944    -9.4373    -0.0578 C.ar    
  25 H25           -0.7838     1.9024    -0.2860 H       
  26 H26            2.6400     0.4677     1.2236 H       
  27 H27            2.9805     0.5559    -0.5349 H       
  28 H28            2.9251     2.5810    -1.1440 H       
  29 H29            1.2982     2.6229    -1.8822 H       
  30 H30            2.6218     4.7028    -0.3399 H       
  31 H31            1.0051     4.7536    -1.0982 H       
  32 H32            1.4001     4.8084     1.6454 H       
  33 H33           -0.0789     4.1471     0.8813 H       
  34 H34            0.6762     2.2515     2.1530 H       
  35 H35            2.4045     2.6294     1.8506 H       
  36 H36           -0.5294    -2.4908    -0.0053 H       
  37 H37            0.0176    -4.9089    -0.0223 H       
  38 H38            4.1775    -3.8332    -0.0563 H       
  39 H39            5.3003    -8.0625    -0.0878 H       
  40 H40            5.9161   -10.4433    -0.1036 H       
  41 H41            4.1662   -12.1720    -0.0935 H       
  42 H42            1.7909   -11.5329    -0.0687 H       
  43 H43            1.1511    -9.1585    -0.0424 H       
@<TRIPOS>BOND
   1    1    2 am
   2    1    5 1
   3    1   25 1
   4    2    3 am
   5    2   10 2
   6    3    4 1
   7    3   11 1
   8    4    5 1
   9    4   26 1
  10    4   27 1
  11    5    6 1
  12    5    9 1
  13    6    7 1
  14    6   28 1
  15    6   29 1
  16    7    8 1
  17    7   30 1
  18    7   31 1
  19    8    9 1
  20    8   32 1
  21    8   33 1
  22    9   34 1
  23    9   35 1
  24   11   12 ar
  25   11   16 ar
  26   12   13 ar
  27   12   36 1
  28   13   14 ar
  29   13   37 1
  30   14   15 ar
  31   14   17 1
  32   15   16 ar
  33   15   38 1
  34   17   18 3
  35   18   19 1
  36   19   20 ar
  37   19   24 ar
  38   20   21 ar
  39   20   39 1
  40   21   22 ar
  41   21   40 1
  42   22   23 ar
  43   22   41 1
  44   23   24 ar
  45   23   42 1
  46   24   43 1

#	End of record

