#	Name: ASD00191008
#	Creating user name:	WinNT
#	Creation time:	15. 06. 2019 18:33

#	Modifying user name:	WinNT
#	Modification time:	15. 06. 2019 18:33

#	Program:	/corina/corina34_cracker 3.40 0067  02.08.2006

@<TRIPOS>MOLECULE
ASD00191008
  49   53    0    0    0
SMALL
NO_CHARGES


@<TRIPOS>ATOM
   1 C1            -0.8374     0.9282     0.2514 C.3     
   2 C2            -0.5353    -0.5717     0.0883 C.3     
   3 C3             1.0003    -0.7172     0.1129 C.3     
   4 C4             1.4887     0.5397     0.8750 C.3     
   5 C5             0.5251     1.6419     0.3695 C.3     
   6 C6            -1.5847     1.4383    -0.9538 C.2     
   7 O7            -1.8557     0.6835    -1.8634 O.2     
   8 N8            -1.9517     2.7334    -1.0206 N.am    
   9 N9            -3.5132     4.2636    -4.5646 N.ar    
  10 C10           -2.8482     3.1247    -4.5662 C.ar    
  11 C11           -2.3123     2.5863    -3.3922 C.ar    
  12 C12           -2.4748     3.2482    -2.2029 C.ar    
  13 C13           -3.1906     4.4710    -2.2110 C.ar    
  14 C14           -3.3951     5.2019    -1.0336 C.ar    
  15 C15           -4.0884     6.3749    -1.0796 C.ar    
  16 C16           -4.5967     6.8560    -2.2826 C.ar    
  17 C17           -4.4159     6.1696    -3.4451 C.ar    
  18 C18           -3.7058     4.9576    -3.4359 C.ar    
  19 N19           -2.6760     2.4434    -5.7632 N.pl3   
  20 C20           -3.3558     2.8628    -6.9100 C.ar    
  21 C21           -3.6174     4.2202    -7.1035 C.ar    
  22 C22           -4.2795     4.6477    -8.2153 C.ar    
  23 C23           -4.7034     3.7207    -9.1765 C.ar    
  24 C24           -4.4415     2.3500    -8.9863 C.ar    
  25 C25           -3.7601     1.9306    -7.8485 C.ar    
  26 C26           -5.3953     3.8395   -10.4065 C.2     
  27 N27           -5.5417     2.6523   -10.9186 N.2     
  28 N28           -4.9658     1.6967   -10.0727 N.pl3   
  29 H29           -1.4255     1.0947     1.1539 H       
  30 H30           -0.9768    -1.1332     0.9117 H       
  31 H31           -0.9291    -0.9307    -0.8625 H       
  32 H32            1.2892    -1.6229     0.6462 H       
  33 H33            1.3989    -0.7271    -0.9015 H       
  34 H34            1.3876     0.4023     1.9516 H       
  35 H35            2.5192     0.7761     0.6098 H       
  36 H36            0.8470     2.0130    -0.6036 H       
  37 H37            0.4672     2.4578     1.0899 H       
  38 H38           -1.8513     3.3067    -0.2446 H       
  39 H39           -1.7727     1.6512    -3.4223 H       
  40 H40           -3.0058     4.8378    -0.0943 H       
  41 H41           -4.2454     6.9375    -0.1712 H       
  42 H42           -5.1430     7.7876    -2.2945 H       
  43 H43           -4.8171     6.5556    -4.3706 H       
  44 H44           -2.0838     1.6763    -5.8038 H       
  45 H45           -3.2925     4.9382    -6.3651 H       
  46 H46           -4.4775     5.7002    -8.3551 H       
  47 H47           -3.5547     0.8815    -7.6947 H       
  48 H48           -5.7440     4.7623   -10.8462 H       
  49 H49           -4.9420     0.7395   -10.2276 H       
@<TRIPOS>BOND
   1    1    2 1
   2    1    5 1
   3    1    6 1
   4    1   29 1
   5    2    3 1
   6    2   30 1
   7    2   31 1
   8    3    4 1
   9    3   32 1
  10    3   33 1
  11    4    5 1
  12    4   34 1
  13    4   35 1
  14    5   36 1
  15    5   37 1
  16    6    7 2
  17    6    8 am
  18    8   12 1
  19    8   38 1
  20    9   10 ar
  21    9   18 ar
  22   10   11 ar
  23   10   19 1
  24   11   12 ar
  25   11   39 1
  26   12   13 ar
  27   13   14 ar
  28   13   18 ar
  29   14   15 ar
  30   14   40 1
  31   15   16 ar
  32   15   41 1
  33   16   17 ar
  34   16   42 1
  35   17   18 ar
  36   17   43 1
  37   19   20 1
  38   19   44 1
  39   20   21 ar
  40   20   25 ar
  41   21   22 ar
  42   21   45 1
  43   22   23 ar
  44   22   46 1
  45   23   24 ar
  46   23   26 1
  47   24   25 ar
  48   24   28 1
  49   25   47 1
  50   26   27 2
  51   26   48 1
  52   27   28 1
  53   28   49 1

#	End of record

