#	Name: ASD01028583
#	Creating user name:	WinNT
#	Creation time:	15. 06. 2019 18:57

#	Modifying user name:	WinNT
#	Modification time:	15. 06. 2019 18:57

#	Program:	/corina/corina34_cracker 3.40 0067  02.08.2006

@<TRIPOS>MOLECULE
ASD01028583
  50   55    0    0    0
SMALL
NO_CHARGES


@<TRIPOS>ATOM
   1 N1            -0.0169     1.3921     0.0097 N.2     
   2 N2             0.0021    -0.0041     0.0020 N.pl3   
   3 C3             1.1072     2.0742     0.0026 C.2     
   4 C4             2.3533     1.4122    -0.0133 C.2     
   5 C5             2.4034     0.0542    -0.0215 C.2     
   6 C6             1.2001    -0.6769    -0.0130 C.2     
   7 N7             0.9139    -1.9687    -0.0177 N.2     
   8 N8            -0.3645    -2.1206    -0.0054 N.2     
   9 C9            -0.9587    -0.9533     0.0057 C.2     
  10 C10           -2.4463    -0.7128     0.0225 C.3     
  11 N11           -2.9137    -0.6410     1.4091 N.pl3   
  12 C12           -4.2574    -0.4245     1.6779 C.ar    
  13 C13           -5.1749    -0.2733     0.6513 C.ar    
  14 C14           -6.5138    -0.0576     0.9494 C.ar    
  15 N15           -6.9434     0.0089     2.1882 N.ar    
  16 C16           -6.1127    -0.1283     3.2270 C.ar    
  17 C17           -4.7335    -0.3572     3.0107 C.ar    
  18 C18           -6.5875    -0.0552     4.5498 C.ar    
  19 C19           -5.6862    -0.2041     5.5709 C.ar    
  20 C20           -4.3352    -0.4221     5.2809 C.ar    
  21 N21           -3.9037    -0.4955     4.0457 N.ar    
  22 O22           -6.1036    -0.1398     6.8622 O.3     
  23 C23            1.0649     3.5571     0.0110 C.2     
  24 C24           -5.1085    -0.3039     7.8745 C.3     
  25 C25           -0.0587     4.3324     0.0259 C.2     
  26 N26            0.3351     5.6208     0.0290 N.pl3   
  27 N27            1.7348     5.6514     0.0158 N.2     
  28 C28            2.1772     4.4221     0.0112 C.2     
  29 C29           -0.5491     6.7888     0.0433 C.3     
  30 C30           -1.0822     7.2877    -1.3012 C.3     
  31 C31           -2.0171     6.5681    -0.3270 C.3     
  32 H32            3.2686     1.9856    -0.0193 H       
  33 H33            3.3542    -0.4578    -0.0344 H       
  34 H34           -2.6684     0.2261    -0.4848 H       
  35 H35           -2.9525    -1.5310    -0.4896 H       
  36 H36           -2.2837    -0.7449     2.1393 H       
  37 H37           -4.8500    -0.3227    -0.3774 H       
  38 H38           -7.2203     0.0589     0.1409 H       
  39 H39           -7.6343     0.1141     4.7546 H       
  40 H40           -3.6330    -0.5382     6.0932 H       
  41 H41           -4.3534     0.4755     7.7716 H       
  42 H42           -5.5744    -0.2309     8.8572 H       
  43 H43           -4.6386    -1.2815     7.7670 H       
  44 H44           -1.0786     3.9772     0.0334 H       
  45 H45            3.2145     4.1215     0.0013 H       
  46 H46           -0.3289     7.5358     0.8059 H       
  47 H47           -1.2131     8.3629    -1.4230 H       
  48 H48           -0.7751     6.7469    -2.1964 H       
  49 H49           -2.3250     5.5538    -0.5813 H       
  50 H50           -2.7631     7.1699     0.1921 H       
@<TRIPOS>BOND
   1    1    2 1
   2    1    3 2
   3    2    6 1
   4    2    9 1
   5    3    4 1
   6    3   23 1
   7    4    5 2
   8    4   32 1
   9    5    6 1
  10    5   33 1
  11    6    7 2
  12    7    8 1
  13    8    9 2
  14    9   10 1
  15   10   11 1
  16   10   34 1
  17   10   35 1
  18   11   12 1
  19   11   36 1
  20   12   13 ar
  21   12   17 ar
  22   13   14 ar
  23   13   37 1
  24   14   15 ar
  25   14   38 1
  26   15   16 ar
  27   16   17 ar
  28   16   18 ar
  29   17   21 ar
  30   18   19 ar
  31   18   39 1
  32   19   20 ar
  33   19   22 1
  34   20   21 ar
  35   20   40 1
  36   22   24 1
  37   23   25 2
  38   23   28 1
  39   24   41 1
  40   24   42 1
  41   24   43 1
  42   25   26 1
  43   25   44 1
  44   26   27 1
  45   26   29 1
  46   27   28 2
  47   28   45 1
  48   29   30 1
  49   29   31 1
  50   29   46 1
  51   30   31 1
  52   30   47 1
  53   30   48 1
  54   31   49 1
  55   31   50 1

#	End of record

