#	Name: ASD01230376
#	Creating user name:	WinNT
#	Creation time:	15. 06. 2019 19:14

#	Modifying user name:	WinNT
#	Modification time:	15. 06. 2019 19:14

#	Program:	/corina/corina34_cracker 3.40 0067  02.08.2006

@<TRIPOS>MOLECULE
ASD01230376
  38   40    0    0    0
SMALL
NO_CHARGES


@<TRIPOS>ATOM
   1 C1             0.2082     1.1132    -0.3928 C.ar    
   2 C2             0.0341    -0.1987    -0.8566 C.ar    
   3 C3             1.0806    -0.8147    -1.5424 C.ar    
   4 C4             2.2526    -0.0998    -1.7365 C.ar    
   5 C5             2.3503     1.1893    -1.2504 C.ar    
   6 N6             1.3467     1.7526    -0.6039 N.ar    
   7 N7            -0.8231     1.7469     0.2871 N.pl3   
   8 C8            -1.2406    -0.9188    -0.6214 C.ar    
   9 C9            -1.8908    -1.5520    -1.6798 C.ar    
  10 C10           -3.0761    -2.2208    -1.4579 C.ar    
  11 C11           -3.6225    -2.2638    -0.1821 C.ar    
  12 C12           -2.9773    -1.6342     0.8740 C.ar    
  13 C13           -1.7885    -0.9690     0.6596 C.ar    
  14 O14           -4.7910    -2.9228     0.0332 O.3     
  15 C15           -4.7306    -4.2463     0.3358 C.ar    
  16 C16           -5.8986    -4.9843     0.4572 C.ar    
  17 C17           -5.8342    -6.3339     0.7654 C.ar    
  18 C18           -4.6006    -6.9442     0.9519 C.ar    
  19 C19           -3.4381    -6.2061     0.8308 C.ar    
  20 C20           -3.5002    -4.8613     0.5179 C.ar    
  21 O21           -6.9772    -7.0595     0.8854 O.3     
  22 C22           -8.2101    -6.3666     0.6806 C.3     
  23 Cl23          -4.5187    -8.6347     1.3380 Cl      
  24 H24            0.9807    -1.8242    -1.9129 H       
  25 H25            3.0825    -0.5474    -2.2632 H       
  26 H26            3.2634     1.7459    -1.4018 H       
  27 H27           -1.6607     1.2823     0.4400 H       
  28 H28           -0.7060     2.6544     0.6092 H       
  29 H29           -1.4667    -1.5183    -2.6725 H       
  30 H30           -3.5802    -2.7115    -2.2774 H       
  31 H31           -3.4049    -1.6690     1.8651 H       
  32 H32           -1.2849    -0.4832     1.4823 H       
  33 H33           -6.8569    -4.5079     0.3121 H       
  34 H34           -2.4796    -6.6821     0.9765 H       
  35 H35           -2.5905    -4.2878     0.4190 H       
  36 H36           -8.2981    -5.5591     1.4074 H       
  37 H37           -8.2308    -5.9521    -0.3273 H       
  38 H38           -9.0417    -7.0601     0.8054 H       
@<TRIPOS>BOND
   1    1    2 ar
   2    1    6 ar
   3    1    7 1
   4    2    3 ar
   5    2    8 1
   6    3    4 ar
   7    3   24 1
   8    4    5 ar
   9    4   25 1
  10    5    6 ar
  11    5   26 1
  12    7   27 1
  13    7   28 1
  14    8    9 ar
  15    8   13 ar
  16    9   10 ar
  17    9   29 1
  18   10   11 ar
  19   10   30 1
  20   11   12 ar
  21   11   14 1
  22   12   13 ar
  23   12   31 1
  24   13   32 1
  25   14   15 1
  26   15   16 ar
  27   15   20 ar
  28   16   17 ar
  29   16   33 1
  30   17   18 ar
  31   17   21 1
  32   18   19 ar
  33   18   23 1
  34   19   20 ar
  35   19   34 1
  36   20   35 1
  37   21   22 1
  38   22   36 1
  39   22   37 1
  40   22   38 1

#	End of record

