#	Name: ASD01208756
#	Creating user name:	WinNT
#	Creation time:	15. 06. 2019 19:10

#	Modifying user name:	WinNT
#	Modification time:	15. 06. 2019 19:10

#	Program:	/corina/corina34_cracker 3.40 0067  02.08.2006

@<TRIPOS>MOLECULE
ASD01208756
  58   61    0    0    0
SMALL
NO_CHARGES


@<TRIPOS>ATOM
   1 C1            -0.6246     1.5508    -0.5836 C.2     
   2 C2            -0.3234     0.1099    -0.4479 C.ar    
   3 C3            -1.3550    -0.8023    -0.2218 C.ar    
   4 C4            -1.0684    -2.1515    -0.0958 C.ar    
   5 C5             0.2425    -2.5964    -0.1937 C.ar    
   6 C6             1.2708    -1.6930    -0.4183 C.ar    
   7 C7             0.9923    -0.3425    -0.5513 C.ar    
   8 O8             0.2754     2.3439    -0.7805 O.2     
   9 N9            -1.8976     1.9844    -0.4944 N.am    
  10 O10            2.5528    -2.1341    -0.5134 O.3     
  11 C11            4.8911    -1.6986    -0.0850 C.3     
  12 C12            3.5738    -1.1408    -0.6277 C.3     
  13 C13            3.7498    -0.7572    -2.0983 C.3     
  14 O14            5.3246    -2.7829    -0.9087 O.3     
  15 C15            6.5530    -3.3785    -0.4865 C.3     
  16 S16           -3.7853     4.0603    -0.5300 S.3     
  17 C17           -2.1807     3.3392    -0.6220 C.2     
  18 N18           -1.3051     4.2749    -0.8278 N.2     
  19 C19           -1.7595     5.5105    -0.9226 C.2     
  20 C20           -3.0805     5.6539    -0.7942 C.2     
  21 F21           -3.7601     6.8199    -0.8560 F       
  22 O22           -2.0721    -3.0408     0.1244 O.3     
  23 C23           -2.8441    -3.4061    -0.9326 C.ar    
  24 C24           -2.5292    -2.9617    -2.2062 C.ar    
  25 C25           -3.3239    -3.3394    -3.2881 C.ar    
  26 C26           -4.4317    -4.1630    -3.0803 C.ar    
  27 C27           -4.7366    -4.6001    -1.8075 C.ar    
  28 C28           -3.9448    -4.2292    -0.7363 C.ar    
  29 O29           -3.6717    -3.1545    -5.7806 O.3     
  30 C30           -2.9946    -2.8688    -4.6506 C.2     
  31 N31           -1.9887    -2.0952    -4.9849 N.2     
  32 N32           -2.0134    -1.8925    -6.2552 N.2     
  33 C33           -3.0278    -2.5235    -6.7775 C.2     
  34 C34           -3.4088    -2.5429    -8.2354 C.3     
  35 C35           -2.7090    -3.7128    -8.9300 C.3     
  36 H36           -2.3753    -0.4567    -0.1448 H       
  37 H37            0.4627    -3.6491    -0.0942 H       
  38 H38            1.7931     0.3596    -0.7308 H       
  39 H39           -2.6161     1.3511    -0.3413 H       
  40 H40            5.6474    -0.9137    -0.0898 H       
  41 H41            4.7425    -2.0538     0.9348 H       
  42 H42            3.2888    -0.2590    -0.0538 H       
  43 H43            4.0348    -1.6390    -2.6722 H       
  44 H44            2.8113    -0.3598    -2.4850 H       
  45 H45            4.5285     0.0004    -2.1856 H       
  46 H46            7.3438    -2.6285    -0.4996 H       
  47 H47            6.4389    -3.7686     0.5249 H       
  48 H48            6.8132    -4.1928    -1.1628 H       
  49 H49           -1.1043     6.3520    -1.0928 H       
  50 H50           -1.6711    -2.3244    -2.3609 H       
  51 H51           -5.0501    -4.4577    -3.9152 H       
  52 H52           -5.5939    -5.2373    -1.6481 H       
  53 H53           -4.1858    -4.5777     0.2571 H       
  54 H54           -4.4887    -2.6591    -8.3273 H       
  55 H55           -3.1030    -1.6071    -8.7033 H       
  56 H56           -1.6291    -3.5965    -8.8381 H       
  57 H57           -3.0147    -4.6486    -8.4621 H       
  58 H58           -2.9845    -3.7268    -9.9845 H       
@<TRIPOS>BOND
   1    1    2 1
   2    1    8 2
   3    1    9 am
   4    2    3 ar
   5    2    7 ar
   6    3    4 ar
   7    3   36 1
   8    4    5 ar
   9    4   22 1
  10    5    6 ar
  11    5   37 1
  12    6    7 ar
  13    6   10 1
  14    7   38 1
  15    9   17 1
  16    9   39 1
  17   10   12 1
  18   11   12 1
  19   11   14 1
  20   11   40 1
  21   11   41 1
  22   12   13 1
  23   12   42 1
  24   13   43 1
  25   13   44 1
  26   13   45 1
  27   14   15 1
  28   15   46 1
  29   15   47 1
  30   15   48 1
  31   16   17 1
  32   16   20 1
  33   17   18 2
  34   18   19 1
  35   19   20 2
  36   19   49 1
  37   20   21 1
  38   22   23 1
  39   23   24 ar
  40   23   28 ar
  41   24   25 ar
  42   24   50 1
  43   25   26 ar
  44   25   30 1
  45   26   27 ar
  46   26   51 1
  47   27   28 ar
  48   27   52 1
  49   28   53 1
  50   29   30 1
  51   29   33 1
  52   30   31 2
  53   31   32 1
  54   32   33 2
  55   33   34 1
  56   34   35 1
  57   34   54 1
  58   34   55 1
  59   35   56 1
  60   35   57 1
  61   35   58 1

#	End of record

