#	Name: ASD01911518
#	Creating user name:	WinNT
#	Creation time:	15. 06. 2019 19:57

#	Modifying user name:	WinNT
#	Modification time:	15. 06. 2019 19:57

#	Program:	/corina/corina34_cracker 3.40 0067  02.08.2006

@<TRIPOS>MOLECULE
ASD01911518
  36   38    0    0    0
SMALL
NO_CHARGES


@<TRIPOS>ATOM
   1 N1            -0.0068     1.4098    -0.0031 N.2     
   2 N2            -0.0073     0.0099    -0.0454 N.pl3   
   3 C3             1.2422     1.8243     0.0386 C.2     
   4 C4             2.0818     0.6978     0.0242 C.2     
   5 C5             1.2896    -0.4114    -0.0278 C.2     
   6 C6             1.7532    -1.8166    -0.0590 C.ar    
   7 C7             1.6872     3.2396     0.0913 C.ar    
   8 C8            -1.1921    -0.8502    -0.0986 C.3     
   9 C9            -1.6294    -1.0147    -1.5313 C.2     
  10 O10           -2.7021    -1.7669    -1.8234 O.3     
  11 O11           -1.0145    -0.4695    -2.4171 O.2     
  12 C12            0.7480     4.2647     0.1003 C.ar    
  13 C13            3.0475     3.5424     0.1375 C.ar    
  14 C14            3.4648     4.8582     0.1870 C.ar    
  15 C15            2.5391     5.8823     0.1911 C.ar    
  16 C16            1.1735     5.5919     0.1499 C.ar    
  17 C17            3.0151    -2.1488     0.4340 C.ar    
  18 C18            0.9277    -2.8151    -0.5762 C.ar    
  19 C19            1.3657    -4.1233    -0.6025 C.ar    
  20 C20            2.6204    -4.4456    -0.1170 C.ar    
  21 C21            3.4416    -3.4606     0.4021 C.ar    
  22 C22            0.2131     6.6541     0.1541 C.1     
  23 N23           -0.5488     7.4968     0.1575 N.1     
  24 H24            3.1614     0.7084     0.0492 H       
  25 H25           -0.9516    -1.8264     0.3223 H       
  26 H26           -1.9978    -0.3947     0.4772 H       
  27 H27           -2.9441    -1.8428    -2.7566 H       
  28 H28           -0.3066     4.0342     0.0688 H       
  29 H29            3.7769     2.7460     0.1349 H       
  30 H30            4.5197     5.0868     0.2230 H       
  31 H31            2.8711     6.9093     0.2302 H       
  32 H32            3.6571    -1.3807     0.8394 H       
  33 H33           -0.0522    -2.5648    -0.9549 H       
  34 H34            0.7276    -4.8972    -1.0027 H       
  35 H35            2.9585    -5.4711    -0.1391 H       
  36 H36            4.4201    -3.7185     0.7796 H       
@<TRIPOS>BOND
   1    1    2 1
   2    1    3 2
   3    2    8 1
   4    2    5 1
   5    3    4 1
   6    3    7 1
   7    4    5 2
   8    4   24 1
   9    5    6 1
  10    6   18 ar
  11    6   17 ar
  12    7   12 ar
  13    7   13 ar
  14    8    9 1
  15    8   25 1
  16    8   26 1
  17    9   10 1
  18    9   11 2
  19   10   27 1
  20   12   16 ar
  21   12   28 1
  22   13   14 ar
  23   13   29 1
  24   14   15 ar
  25   14   30 1
  26   15   16 ar
  27   15   31 1
  28   16   22 1
  29   17   21 ar
  30   17   32 1
  31   18   19 ar
  32   18   33 1
  33   19   20 ar
  34   19   34 1
  35   20   21 ar
  36   20   35 1
  37   21   36 1
  38   22   23 3

#	End of record

