#	Name: ASD00570019
#	Creating user name:	WinNT
#	Creation time:	15. 06. 2019 18:36

#	Modifying user name:	WinNT
#	Modification time:	15. 06. 2019 18:36

#	Program:	/corina/corina34_cracker 3.40 0067  02.08.2006

@<TRIPOS>MOLECULE
ASD00570019
  54   56    0    0    0
SMALL
NO_CHARGES


@<TRIPOS>ATOM
   1 C1             0.4931     1.1240     0.1037 C.ar    
   2 C2             0.5304    -0.2556     0.3595 C.ar    
   3 C3             1.7308    -0.8893     0.4654 C.ar    
   4 C4             2.9265    -0.1878     0.3238 C.ar    
   5 C5             2.9284     1.1503     0.0753 C.ar    
   6 C6             1.7079     1.8379    -0.0409 C.ar    
   7 C7             1.6722     3.2192    -0.2982 C.ar    
   8 C8             0.4758     3.8597    -0.4064 C.ar    
   9 C9            -0.7245     3.1688    -0.2657 C.ar    
  10 C10           -0.7324     1.8134    -0.0182 C.ar    
  11 N11           -1.9421     1.1288     0.1154 N.am    
  12 C12           -3.0144     1.7520     0.6427 C.2     
  13 N13           -4.2051     1.1222     0.6879 N.am    
  14 N14           -4.3281    -0.1803     0.1868 N.am    
  15 C15           -5.5188    -0.8101     0.2320 C.2     
  16 C16           -5.6486    -2.1847    -0.2969 C.ar    
  17 C17           -4.5386    -2.8351    -0.8385 C.ar    
  18 C18           -6.8801    -2.8396    -0.2516 C.ar    
  19 C19           -6.9944    -4.1224    -0.7469 C.ar    
  20 C20           -5.8917    -4.7593    -1.2871 C.ar    
  21 C21           -4.6665    -4.1175    -1.3303 C.ar    
  22 C22           -6.0237    -6.1607    -1.8253 C.3     
  23 C23           -4.6413    -6.6919    -2.2094 C.3     
  24 C24           -6.6369    -7.0633    -0.7528 C.3     
  25 C25           -6.9271    -6.1498    -3.0601 C.3     
  26 N26           -8.2273    -4.7799    -0.7023 N.3     
  27 O27           -8.3679    -5.2242     0.2870 O.2     
  28 O28           -9.3011    -3.8212    -0.9634 O.3     
  29 O29           -6.4860    -0.2481     0.7076 O.2     
  30 O30           -2.9077     2.8824     1.0776 O.2     
  31 H31           -0.3886    -0.8117     0.4722 H       
  32 H32            1.7567    -1.9509     0.6623 H       
  33 H33            3.8656    -0.7137     0.4130 H       
  34 H34            3.8628     1.6812    -0.0317 H       
  35 H35            2.5932     3.7722    -0.4097 H       
  36 H36            0.4576     4.9212    -0.6042 H       
  37 H37           -1.6602     3.7005    -0.3553 H       
  38 H38           -2.0106     0.2046    -0.1714 H       
  39 H39           -4.9769     1.5707     1.0674 H       
  40 H40           -3.5563    -0.6289    -0.1928 H       
  41 H41           -3.5818    -2.3353    -0.8728 H       
  42 H42           -7.7417    -2.3437     0.1706 H       
  43 H43           -3.8084    -4.6218    -1.7496 H       
  44 H44           -3.9977    -6.6997    -1.3297 H       
  45 H45           -4.7368    -7.7055    -2.5987 H       
  46 H46           -4.2044    -6.0489    -2.9735 H       
  47 H47           -7.6880    -6.8069    -0.6197 H       
  48 H48           -6.5535    -8.1048    -1.0632 H       
  49 H49           -6.1062    -6.9211     0.1886 H       
  50 H50           -6.5476    -5.4261    -3.7815 H       
  51 H51           -6.9373    -7.1418    -3.5116 H       
  52 H52           -7.9399    -5.8736    -2.7669 H       
  53 H53           -8.2469    -5.5059    -1.4028 H       
  54 H54          -10.1869    -4.2088    -0.9480 H       
@<TRIPOS>BOND
   1    1    2 ar
   2    1    6 ar
   3    1   10 ar
   4    2    3 ar
   5    2   31 1
   6    3    4 ar
   7    3   32 1
   8    4    5 ar
   9    4   33 1
  10    5    6 ar
  11    5   34 1
  12    6    7 ar
  13    7    8 ar
  14    7   35 1
  15    8    9 ar
  16    8   36 1
  17    9   10 ar
  18    9   37 1
  19   10   11 1
  20   11   12 am
  21   11   38 1
  22   12   13 am
  23   12   30 2
  24   13   14 1
  25   13   39 1
  26   14   15 am
  27   14   40 1
  28   15   16 1
  29   15   29 2
  30   16   18 ar
  31   16   17 ar
  32   17   21 ar
  33   17   41 1
  34   18   19 ar
  35   18   42 1
  36   19   20 ar
  37   19   26 1
  38   20   21 ar
  39   20   22 1
  40   21   43 1
  41   22   23 1
  42   22   24 1
  43   22   25 1
  44   23   44 1
  45   23   45 1
  46   23   46 1
  47   24   47 1
  48   24   48 1
  49   24   49 1
  50   25   50 1
  51   25   51 1
  52   25   52 1
  53   26   27 2
  54   26   28 1
  55   26   53 1
  56   28   54 1

#	End of record

