#	Name: ASD08150176
#	Creating user name:	WinNT
#	Creation time:	15. 06. 2019 21:15

#	Modifying user name:	WinNT
#	Modification time:	15. 06. 2019 21:15

#	Program:	/corina/corina34_cracker 3.40 0067  02.08.2006

@<TRIPOS>MOLECULE
ASD08150176
  53   54    0    0    0
SMALL
NO_CHARGES


@<TRIPOS>ATOM
   1 C1            -2.6817     2.0867     1.3268 C.3     
   2 C2            -2.0781     0.8002     0.7600 C.3     
   3 C3            -3.1190    -0.3197     0.8168 C.3     
   4 C4            -2.5154    -1.6063     0.2500 C.3     
   5 O5            -1.6844     1.0162    -0.5966 O.3     
   6 O6            -3.4455    -2.6794     0.4094 O.3     
   7 Si7           -2.9292    -4.1010    -0.2010 Si      
   8 C8            -4.3838    -5.2543    -0.4090 C.ar    
   9 C9            -4.6604    -5.8016    -1.6479 C.ar    
  10 C10           -5.7369    -6.6550    -1.8018 C.ar    
  11 C11           -6.5365    -6.9616    -0.7167 C.ar    
  12 C12           -6.2594    -6.4151     0.5224 C.ar    
  13 C13           -5.1803    -5.5651     0.6773 C.ar    
  14 C14           -2.1231    -3.8099    -1.8608 C.ar    
  15 C15           -2.9025    -3.6889    -2.9960 C.ar    
  16 C16           -2.3060    -3.4735    -4.2243 C.ar    
  17 C17           -0.9300    -3.3788    -4.3173 C.ar    
  18 C18           -0.1506    -3.4989    -3.1819 C.ar    
  19 C19           -0.7474    -3.7099    -1.9530 C.ar    
  20 C20           -1.6927    -4.8648     0.9645 C.3     
  21 C21           -2.4200    -5.4040     2.1979 C.3     
  22 C22           -0.9672    -6.0119     0.2582 C.3     
  23 C23           -0.6755    -3.8059     1.3945 C.3     
  24 N24           -4.2932     0.0623     0.0211 N.3     
  25 H25           -1.9401     2.8846     1.2863 H       
  26 H26           -3.5530     2.3702     0.7364 H       
  27 H27           -2.9820     1.9220     2.3616 H       
  28 H28           -1.2068     0.5167     1.3504 H       
  29 H29           -3.4193    -0.4845     1.8516 H       
  30 H30           -2.2969    -1.4692    -0.8091 H       
  31 H31           -1.5945    -1.8414     0.7835 H       
  32 H32           -1.0246     1.7142    -0.7083 H       
  33 H33           -4.0357    -5.5620    -2.4957 H       
  34 H34           -5.9534    -7.0820    -2.7699 H       
  35 H35           -7.3780    -7.6279    -0.8371 H       
  36 H36           -6.8843    -6.6544     1.3701 H       
  37 H37           -4.9616    -5.1410     1.6461 H       
  38 H38           -3.9775    -3.7629    -2.9234 H       
  39 H39           -2.9149    -3.3797    -5.1113 H       
  40 H40           -0.4639    -3.2112    -5.2770 H       
  41 H41            0.9244    -3.4252    -3.2546 H       
  42 H42           -0.1388    -3.8001    -1.0655 H       
  43 H43           -3.1899    -6.1097     1.8861 H       
  44 H44           -1.7062    -5.9091     2.8486 H       
  45 H45           -2.8819    -4.5773     2.7376 H       
  46 H46           -0.3560    -5.6118    -0.5508 H       
  47 H47           -0.3291    -6.5326     0.9722 H       
  48 H48           -1.6995    -6.7084    -0.1500 H       
  49 H49           -1.1679    -3.0627     2.0217 H       
  50 H50            0.1280    -4.2813     1.9571 H       
  51 H51           -0.2620    -3.3194     0.5111 H       
  52 H52           -4.0408     0.2207    -0.9429 H       
  53 H53           -5.0214    -0.6322     0.0947 H       
@<TRIPOS>BOND
   1    1    2 1
   2    1   25 1
   3    1   26 1
   4    1   27 1
   5    2    3 1
   6    2    5 1
   7    2   28 1
   8    3    4 1
   9    3   24 1
  10    3   29 1
  11    4    6 1
  12    4   30 1
  13    4   31 1
  14    5   32 1
  15    6    7 1
  16    7    8 1
  17    7   14 1
  18    7   20 1
  19    8    9 ar
  20    8   13 ar
  21    9   10 ar
  22    9   33 1
  23   10   11 ar
  24   10   34 1
  25   11   12 ar
  26   11   35 1
  27   12   13 ar
  28   12   36 1
  29   13   37 1
  30   14   15 ar
  31   14   19 ar
  32   15   16 ar
  33   15   38 1
  34   16   17 ar
  35   16   39 1
  36   17   18 ar
  37   17   40 1
  38   18   19 ar
  39   18   41 1
  40   19   42 1
  41   20   21 1
  42   20   23 1
  43   20   22 1
  44   21   43 1
  45   21   44 1
  46   21   45 1
  47   22   46 1
  48   22   47 1
  49   22   48 1
  50   23   49 1
  51   23   50 1
  52   23   51 1
  53   24   52 1
  54   24   53 1

#	End of record

