#	Name: ASD01940615
#	Creating user name:	WinNT
#	Creation time:	15. 06. 2019 20:12

#	Modifying user name:	WinNT
#	Modification time:	15. 06. 2019 20:12

#	Program:	/corina/corina34_cracker 3.40 0067  02.08.2006

@<TRIPOS>MOLECULE
ASD01940615
  50   52    0    0    0
SMALL
NO_CHARGES


@<TRIPOS>ATOM
   1 C1            -1.0378     1.0808     1.1281 C.ar    
   2 C2            -1.0290    -0.3196     1.0290 C.ar    
   3 C3             0.1001    -1.0283     1.4012 C.ar    
   4 C4             1.2205    -0.3609     1.8711 C.ar    
   5 C5             1.2237     1.0196     1.9732 C.ar    
   6 C6             0.1027     1.7490     1.6051 C.ar    
   7 N7             0.1074     3.1344     1.7077 N.pl3   
   8 C8             0.9866     3.7673     2.5930 C.ar    
   9 C9             1.4998     3.0721     3.6798 C.ar    
  10 C10            2.3676     3.6994     4.5525 C.ar    
  11 C11            2.7259     5.0194     4.3457 C.ar    
  12 C12            2.2168     5.7164     3.2646 C.ar    
  13 C13            1.3529     5.0926     2.3834 C.ar    
  14 F14            0.8603     5.7712     1.3242 F       
  15 I15            4.0419     5.9654     5.6732 I       
  16 F16            2.3169    -1.0627     2.2324 F       
  17 C17           -2.2299     1.8434     0.7297 C.2     
  18 O18           -3.0974     2.0871     1.5471 O.2     
  19 N19           -2.3618     2.2725    -0.5411 N.am    
  20 O20           -2.1238    -0.9761     0.5705 O.3     
  21 C21           -2.0439    -2.3253     0.4235 C.ar    
  22 C22           -2.1602    -3.1514     1.5317 C.ar    
  23 C23           -2.0785    -4.5272     1.3805 C.ar    
  24 C24           -1.8799    -5.0760     0.1152 C.ar    
  25 C25           -1.7646    -4.2469    -0.9875 C.ar    
  26 C26           -1.8519    -2.8750    -0.8353 C.ar    
  27 N27           -2.1950    -5.3632     2.4968 N.am    
  28 S28           -3.2220    -4.9582     3.7311 S.o2    
  29 N29           -4.7415    -4.8353     3.0841 N.am    
  30 O30           -3.2499    -6.0728     4.6120 O.2     
  31 O31           -2.8552    -3.6493     4.1452 O.2     
  32 O32           -1.7989    -6.4259    -0.0365 O.3     
  33 C33           -1.5945    -6.9186    -1.3622 C.3     
  34 H34            0.1082    -2.1056     1.3254 H       
  35 H35            2.1016     1.5302     2.3405 H       
  36 H36           -0.4988     3.6630     1.1654 H       
  37 H37            1.2205     2.0417     3.8430 H       
  38 H38            2.7668     3.1585     5.3978 H       
  39 H39            2.4979     6.7471     3.1063 H       
  40 H40           -1.6702     2.0782    -1.1928 H       
  41 H41           -3.1484     2.7757    -0.8039 H       
  42 H42           -2.3137    -2.7234     2.5113 H       
  43 H43           -1.6102    -4.6720    -1.9683 H       
  44 H44           -1.7660    -2.2305    -1.6976 H       
  45 H45           -1.6741    -6.1799     2.5475 H       
  46 H46           -5.5183    -5.0371     3.6289 H       
  47 H47           -4.8547    -4.5617     2.1605 H       
  48 H48           -2.4202    -6.6014    -1.9991 H       
  49 H49           -0.6585    -6.5229    -1.7566 H       
  50 H50           -1.5488    -8.0075    -1.3420 H       
@<TRIPOS>BOND
   1    1    2 ar
   2    1    6 ar
   3    1   17 1
   4    2    3 ar
   5    2   20 1
   6    3    4 ar
   7    3   34 1
   8    4    5 ar
   9    4   16 1
  10    5    6 ar
  11    5   35 1
  12    6    7 1
  13    7    8 1
  14    7   36 1
  15    8    9 ar
  16    8   13 ar
  17    9   10 ar
  18    9   37 1
  19   10   11 ar
  20   10   38 1
  21   11   12 ar
  22   11   15 1
  23   12   13 ar
  24   12   39 1
  25   13   14 1
  26   17   18 2
  27   17   19 am
  28   19   40 1
  29   19   41 1
  30   20   21 1
  31   21   22 ar
  32   21   26 ar
  33   22   23 ar
  34   22   42 1
  35   23   24 ar
  36   23   27 1
  37   24   25 ar
  38   24   32 1
  39   25   26 ar
  40   25   43 1
  41   26   44 1
  42   27   28 am
  43   27   45 1
  44   28   29 am
  45   28   30 2
  46   28   31 2
  47   29   46 1
  48   29   47 1
  49   32   33 1
  50   33   48 1
  51   33   49 1
  52   33   50 1

#	End of record

