#	Name: ASD00843434
#	Creating user name:	WinNT
#	Creation time:	15. 06. 2019 18:46

#	Modifying user name:	WinNT
#	Modification time:	15. 06. 2019 18:46

#	Program:	/corina/corina34_cracker 3.40 0067  02.08.2006

@<TRIPOS>MOLECULE
ASD00843434
  87   92    0    0    0
SMALL
NO_CHARGES


@<TRIPOS>ATOM
   1 N1             0.9620     1.0823    -0.2146 N.ar    
   2 C2             1.1244    -0.1970    -0.5077 C.ar    
   3 C3             0.9570    -1.1732     0.4664 C.ar    
   4 C4             0.6170    -0.7901     1.7519 C.ar    
   5 C5             0.4557     0.5627     2.0189 C.ar    
   6 C6             0.6379     1.4782     1.0019 C.ar    
   7 C7             1.1426    -2.6298     0.1276 C.3     
   8 C8             0.7679    -3.5007     1.3078 C.2     
   9 C9             0.3096    -3.0035    -1.1002 C.3     
  10 C10           -1.1310    -2.6304    -0.8624 C.2     
  11 N11           -2.0722    -2.9663    -1.7666 N.am    
  12 O12           -1.4433    -2.0278     0.1428 O.2     
  13 C13           -3.4607    -2.5136    -1.6053 C.3     
  14 C14           -4.3869    -3.7323    -1.6671 C.3     
  15 C15           -4.1236    -4.5029    -2.9629 C.3     
  16 C16           -2.6749    -4.9959    -2.9798 C.3     
  17 C17           -1.7281    -3.7869    -2.9357 C.3     
  18 N18           -5.0331    -5.6537    -3.0413 N.3     
  19 C19           -4.8915    -6.3503    -4.3275 C.3     
  20 C20           -5.7953    -7.5854    -4.3380 C.3     
  21 N21           -7.1881    -7.1719    -4.1168 N.3     
  22 C22           -7.3297    -6.4754    -2.8306 C.3     
  23 C23           -6.4259    -5.2403    -2.8201 C.3     
  24 C24           -8.0976    -8.3228    -4.1953 C.3     
  25 O25           -0.3225    -3.5702     1.8343 O.2     
  26 N26            1.8701    -4.1827     1.6621 N.am    
  27 C27            2.6038    -2.9368    -0.1070 C.ar    
  28 C28            2.9651    -3.8749     0.8519 C.ar    
  29 C29            3.5209    -2.4763    -1.0246 C.ar    
  30 C30            5.1954    -3.8851    -0.0454 C.ar    
  31 C31            4.2753    -4.3473     0.8747 C.ar    
  32 Cl32           6.8261    -4.4794    -0.0095 Cl      
  33 C33            1.5115    -6.8455     2.2584 C.ar    
  34 C34            2.5078    -7.6721     1.7728 C.ar    
  35 C35            0.1928    -7.2604     2.2344 C.ar    
  36 C36           -0.1325    -8.5026     1.7248 C.ar    
  37 C37            0.8653    -9.3339     1.2370 C.ar    
  38 C38            2.1877    -8.9150     1.2618 C.ar    
  39 O39            0.5479   -10.5565     0.7356 O.3     
  40 H40            3.5371    -7.3457     1.7926 H       
  41 C41            1.6265   -11.3588     0.2508 C.3     
  42 C42            4.8231    -2.9499    -0.9977 C.ar    
  43 F43            5.7264    -2.5012    -1.8965 F       
  44 S44            1.9239    -5.2635     2.9156 S.o2    
  45 O45            3.2835    -5.3397     3.3217 O.2     
  46 O46            0.8681    -4.9078     3.7977 O.2     
  47 O47            1.4573    -0.5596    -1.7721 O.3     
  48 C48            1.5686     0.4867    -2.7390 C.3     
  49 C49            2.0493    -0.0971    -4.0690 C.3     
  50 F50            3.2566    -0.7757    -3.8713 F       
  51 F51            1.0891    -0.9873    -4.5617 F       
  52 H52            0.4799    -1.5268     2.5297 H       
  53 H53            0.1902     0.8952     3.0115 H       
  54 H54            0.5140     2.5318     1.2044 H       
  55 H55            0.6850    -2.4663    -1.9712 H       
  56 H56            0.3827    -4.0767    -1.2759 H       
  57 H57           -3.5736    -2.0174    -0.6413 H       
  58 H58           -3.7146    -1.8206    -2.4073 H       
  59 H59           -4.1929    -4.3804    -0.8125 H       
  60 H60           -5.4253    -3.4015    -1.6452 H       
  61 H61           -4.2939    -3.8469    -3.8165 H       
  62 H62           -2.4970    -5.6322    -2.1128 H       
  63 H63           -2.4947    -5.5646    -3.8920 H       
  64 H64           -1.8421    -3.2001    -3.8471 H       
  65 H65           -0.6980    -4.1325    -2.8477 H       
  66 H66           -5.1812    -5.6808    -5.1375 H       
  67 H67           -3.8544    -6.6574    -4.4625 H       
  68 H68           -5.7138    -8.0875    -5.3021 H       
  69 H69           -5.4882    -8.2675    -3.5453 H       
  70 H70           -8.3668    -6.1683    -2.6956 H       
  71 H71           -7.0400    -7.1449    -2.0207 H       
  72 H72           -6.5074    -4.7382    -1.8561 H       
  73 H73           -6.7330    -4.5582    -3.6129 H       
  74 H74           -7.8250    -9.0539    -3.4342 H       
  75 H75           -9.1216    -7.9887    -4.0279 H       
  76 H76           -8.0212    -8.7797    -5.1819 H       
  77 H77            3.2260    -1.7471    -1.7647 H       
  78 H78            4.5726    -5.0757     1.6146 H       
  79 H79           -0.5836    -6.6131     2.6146 H       
  80 H80           -1.1626    -8.8264     1.7066 H       
  81 H81            2.9663    -9.5605     0.8829 H       
  82 H82            1.2362   -12.3064    -0.1203 H       
  83 H83            2.1350   -10.8337    -0.5578 H       
  84 H84            2.3310   -11.5482     1.0606 H       
  85 H85            0.5953     0.9569    -2.8792 H       
  86 H86            2.2844     1.2304    -2.3888 H       
  87 H87            2.1992     0.7094    -4.7868 H       
@<TRIPOS>BOND
   1    1    2 ar
   2    1    6 ar
   3    2    3 ar
   4    2   47 1
   5    3    4 ar
   6    3    7 1
   7    4    5 ar
   8    4   52 1
   9    5    6 ar
  10    5   53 1
  11    6   54 1
  12    7    8 1
  13    7    9 1
  14    7   27 1
  15    8   25 2
  16    8   26 am
  17    9   10 1
  18    9   55 1
  19    9   56 1
  20   10   11 am
  21   10   12 2
  22   11   13 1
  23   11   17 1
  24   13   14 1
  25   13   57 1
  26   13   58 1
  27   14   15 1
  28   14   59 1
  29   14   60 1
  30   15   16 1
  31   15   18 1
  32   15   61 1
  33   16   17 1
  34   16   62 1
  35   16   63 1
  36   17   64 1
  37   17   65 1
  38   18   19 1
  39   18   23 1
  40   19   20 1
  41   19   66 1
  42   19   67 1
  43   20   21 1
  44   20   68 1
  45   20   69 1
  46   21   22 1
  47   21   24 1
  48   22   23 1
  49   22   70 1
  50   22   71 1
  51   23   72 1
  52   23   73 1
  53   24   74 1
  54   24   75 1
  55   24   76 1
  56   26   44 am
  57   26   28 1
  58   27   28 ar
  59   27   29 ar
  60   28   31 ar
  61   29   42 ar
  62   29   77 1
  63   30   31 ar
  64   30   32 1
  65   30   42 ar
  66   31   78 1
  67   33   34 ar
  68   33   35 ar
  69   33   44 1
  70   34   40 1
  71   34   38 ar
  72   35   36 ar
  73   35   79 1
  74   36   37 ar
  75   36   80 1
  76   37   38 ar
  77   37   39 1
  78   38   81 1
  79   39   41 1
  80   41   82 1
  81   41   83 1
  82   41   84 1
  83   42   43 1
  84   44   45 2
  85   44   46 2
  86   47   48 1
  87   48   49 1
  88   48   85 1
  89   48   86 1
  90   49   50 1
  91   49   51 1
  92   49   87 1

#	End of record

