#	Name: ASD00069401
#	Creating user name:	WinNT
#	Creation time:	15. 06. 2019 18:29

#	Modifying user name:	WinNT
#	Modification time:	15. 06. 2019 18:29

#	Program:	/corina/corina34_cracker 3.40 0067  02.08.2006

@<TRIPOS>MOLECULE
ASD00069401
  53   55    0    0    0
SMALL
NO_CHARGES


@<TRIPOS>ATOM
   1 C1             0.3091     0.8078     1.1184 C.ar    
   2 C2            -0.0212     0.0043     0.0264 C.ar    
   3 N3             0.8099    -0.0497    -1.0102 N.ar    
   4 C4             1.9359     0.6475    -1.0099 C.ar    
   5 N5             2.2759     1.4188     0.0124 N.ar    
   6 C6             1.4944     1.5199     1.0788 C.ar    
   7 Cl7            1.9533     2.5351     2.4101 Cl      
   8 N8            -1.1979    -0.7270     0.0224 N.3     
   9 C9            -2.1060    -0.2571    -1.0316 C.3     
  10 C10           -0.9245    -2.1633    -0.1138 C.3     
  11 C11           -2.2300    -2.9485     0.0316 C.3     
  12 C12           -3.2165    -2.4932    -1.0473 C.3     
  13 C13           -3.4468    -0.9854    -0.9137 C.3     
  14 C14           -4.3709    -0.5186    -2.0087 C.2     
  15 N15           -4.7169     0.7815    -2.0899 N.am    
  16 O16           -4.8034    -1.3128    -2.8169 O.2     
  17 C17           -5.6153     1.2353    -3.1544 C.3     
  18 C18           -6.3330     2.5104    -2.7071 C.3     
  19 C19           -7.2712     2.9843    -3.8188 C.3     
  20 C20           -6.4591     3.2729    -5.0830 C.3     
  21 C21           -5.7415     1.9979    -5.5304 C.3     
  22 C22           -4.8032     1.5239    -4.4186 C.3     
  23 N23            2.7787     0.5682    -2.1046 N.pl3   
  24 C24            4.0288     1.3318    -2.1235 C.3     
  25 C25            0.0574    -2.6008     0.9750 C.3     
  26 H26           -0.3478     0.8757     1.9729 H       
  27 H27           -2.2647     0.8158    -0.9226 H       
  28 H28           -1.6662    -0.4617    -2.0077 H       
  29 H29           -0.4902    -2.3590    -1.0942 H       
  30 H30           -2.0290    -4.0135    -0.0851 H       
  31 H31           -2.6578    -2.7642     1.0170 H       
  32 H32           -2.8057    -2.7131    -2.0327 H       
  33 H33           -4.1629    -3.0189    -0.9207 H       
  34 H34           -3.8937    -0.7701     0.0569 H       
  35 H35           -4.3711     1.4167    -1.4436 H       
  36 H36           -6.3510     0.4590    -3.3645 H       
  37 H37           -6.9115     2.3047    -1.8065 H       
  38 H38           -5.5973     3.2867    -2.4970 H       
  39 H39           -8.0069     2.2080    -4.0289 H       
  40 H40           -7.7825     3.8927    -3.5001 H       
  41 H41           -7.1276     3.6106    -5.8750 H       
  42 H42           -5.7234     4.0493    -4.8729 H       
  43 H43           -6.4772     1.2215    -5.7405 H       
  44 H44           -5.1630     2.2035    -6.4310 H       
  45 H45           -4.0675     2.3003    -4.2085 H       
  46 H46           -4.2920     0.6156    -4.7373 H       
  47 H47            2.5417     0.0070    -2.8595 H       
  48 H48            4.5553     1.1439    -3.0593 H       
  49 H49            3.8062     2.3955    -2.0391 H       
  50 H50            4.6552     1.0242    -1.2861 H       
  51 H51           -0.3302    -2.3108     1.9516 H       
  52 H52            0.1805    -3.6832     0.9397 H       
  53 H53            1.0215    -2.1199     0.8094 H       
@<TRIPOS>BOND
   1    1    2 ar
   2    1    6 ar
   3    1   26 1
   4    2    3 ar
   5    2    8 1
   6    3    4 ar
   7    4    5 ar
   8    4   23 1
   9    5    6 ar
  10    6    7 1
  11    8    9 1
  12    8   10 1
  13    9   13 1
  14    9   27 1
  15    9   28 1
  16   10   11 1
  17   10   25 1
  18   10   29 1
  19   11   12 1
  20   11   30 1
  21   11   31 1
  22   12   13 1
  23   12   32 1
  24   12   33 1
  25   13   14 1
  26   13   34 1
  27   14   15 am
  28   14   16 2
  29   15   17 1
  30   15   35 1
  31   17   18 1
  32   17   22 1
  33   17   36 1
  34   18   19 1
  35   18   37 1
  36   18   38 1
  37   19   20 1
  38   19   39 1
  39   19   40 1
  40   20   21 1
  41   20   41 1
  42   20   42 1
  43   21   22 1
  44   21   43 1
  45   21   44 1
  46   22   45 1
  47   22   46 1
  48   23   24 1
  49   23   47 1
  50   24   48 1
  51   24   49 1
  52   24   50 1
  53   25   51 1
  54   25   52 1
  55   25   53 1

#	End of record

