#	Name: ASD08170152
#	Creating user name:	WinNT
#	Creation time:	15. 06. 2019 21:17

#	Modifying user name:	WinNT
#	Modification time:	15. 06. 2019 21:17

#	Program:	/corina/corina34_cracker 3.40 0067  02.08.2006

@<TRIPOS>MOLECULE
ASD08170152
  67   68    0    0    0
SMALL
NO_CHARGES


@<TRIPOS>ATOM
   1 Cl1            0.0000     0.0000     0.0000 Cl      
   2 H2             0.0000     1.3700     0.0000 H       
   3 Cl3            5.0000     6.3700     5.0000 Cl      
   4 H4             5.0000     7.7400     5.0000 H       
   5 C5            12.0003    24.1574    14.6568 C.3     
   6 C6            15.1728    26.9329    14.6414 C.3     
   7 C7            15.3246    28.4553    14.6482 C.3     
   8 C8            16.7882    28.8143    14.6361 C.2     
   9 C9            12.0207    22.6506    14.6485 C.2     
  10 S10           17.8122    29.0544    16.0522 S.3     
  11 C11           19.1350    29.3861    15.0153 C.2     
  12 N12           18.7314    29.2965    13.7840 N.2     
  13 N13           17.5215    28.9963    13.5841 N.2     
  14 S14           12.0212    21.6179    13.2184 S.3     
  15 N15           12.0467    21.8812    15.6901 N.2     
  16 N16           12.0609    20.6375    15.4735 N.2     
  17 C17           12.0503    20.2407    14.2368 C.2     
  18 N18           12.0625    18.9171    13.8100 N.am    
  19 C19           12.0880    17.9177    14.7140 C.2     
  20 O20           12.1004    18.1728    15.8996 O.2     
  21 N21           20.4267    29.6998    15.4242 N.am    
  22 C22           21.3841    29.9410    14.5068 C.2     
  23 C23           22.7838    30.2809    14.9499 C.3     
  24 O24           21.1191    29.8845    13.3246 O.2     
  25 C25           12.1013    16.4835    14.2515 C.3     
  26 C26           12.1296    15.5697    15.4495 C.ar    
  27 C27           13.4357    24.6870    14.6460 C.3     
  28 C28           23.6538    30.5028    13.7396 C.ar    
  29 C29           10.9443    15.1352    16.0139 C.ar    
  30 C30           23.7668    31.7684    13.1939 C.ar    
  31 S31           13.4111    26.5008    14.6559 S.3     
  32 C32           24.5633    31.9753    12.0848 C.ar    
  33 C33           25.2514    30.9103    11.5174 C.ar    
  34 C34           25.1356    29.6403    12.0681 C.ar    
  35 C35           24.3419    29.4415    13.1806 C.ar    
  36 C36           10.9666    14.2977    17.1117 C.ar    
  37 C37           12.1815    13.8918    17.6491 C.ar    
  38 C38           13.3703    14.3302    17.0798 C.ar    
  39 C39           13.3408    15.1630    15.9785 C.ar    
  40 N40           12.2077    13.0452    18.7598 N.pl3   
  41 N41           26.0574    31.1160    10.3954 N.pl3   
  42 H42           11.4731    24.5185    13.7738 H       
  43 H43           11.4901    24.5089    15.5536 H       
  44 H44           15.6395    26.5252    13.7448 H       
  45 H45           15.6565    26.5156    15.5246 H       
  46 H46           14.8409    28.8726    13.7650 H       
  47 H47           14.8579    28.8630    15.5448 H       
  48 H48           12.0527    18.7131    12.8617 H       
  49 H49           20.6386    29.7449    16.3697 H       
  50 H50           22.7635    31.1879    15.5540 H       
  51 H51           23.1872    29.4592    15.5416 H       
  52 H52           11.2060    16.2833    13.6629 H       
  53 H53           12.9857    16.3074    13.6392 H       
  54 H54           13.9629    24.3259    15.5290 H       
  55 H55           13.9459    24.3355    13.7492 H       
  56 H56           10.0000    15.4514    15.5958 H       
  57 H57           23.2313    32.5959    13.6354 H       
  58 H58           24.6508    32.9639    11.6589 H       
  59 H59           25.6693    28.8101    11.6293 H       
  60 H60           24.2517    28.4544    13.6095 H       
  61 H61           10.0405    13.9590    17.5522 H       
  62 H62           14.3166    14.0165    17.4951 H       
  63 H63           14.2647    15.5040    15.5351 H       
  64 H64           11.3770    12.7400    19.1567 H       
  65 H65           13.0567    12.7625    19.1341 H       
  66 H66           26.1372    32.0032    10.0115 H       
  67 H67           26.5374    30.3715    10.0000 H       
@<TRIPOS>BOND
   1    1    2 1
   2    3    4 1
   3    5    9 1
   4    5   27 1
   5    5   42 1
   6    5   43 1
   7    6    7 1
   8    6   31 1
   9    6   44 1
  10    6   45 1
  11    7    8 1
  12    7   46 1
  13    7   47 1
  14    8   10 1
  15    8   13 2
  16    9   14 1
  17    9   15 2
  18   10   11 1
  19   11   12 2
  20   11   21 1
  21   12   13 1
  22   14   17 1
  23   15   16 1
  24   16   17 2
  25   17   18 1
  26   18   19 am
  27   18   48 1
  28   19   20 2
  29   19   25 1
  30   21   22 am
  31   21   49 1
  32   22   23 1
  33   22   24 2
  34   23   28 1
  35   23   50 1
  36   23   51 1
  37   25   26 1
  38   25   52 1
  39   25   53 1
  40   26   29 ar
  41   26   39 ar
  42   27   31 1
  43   27   54 1
  44   27   55 1
  45   28   30 ar
  46   28   35 ar
  47   29   36 ar
  48   29   56 1
  49   30   32 ar
  50   30   57 1
  51   32   33 ar
  52   32   58 1
  53   33   34 ar
  54   33   41 1
  55   34   35 ar
  56   34   59 1
  57   35   60 1
  58   36   37 ar
  59   36   61 1
  60   37   38 ar
  61   37   40 1
  62   38   39 ar
  63   38   62 1
  64   39   63 1
  65   40   64 1
  66   40   65 1
  67   41   66 1
  68   41   67 1

#	End of record

