#	Name: ASD03731807
#	Creating user name:	WinNT
#	Creation time:	15. 06. 2019 20:46

#	Modifying user name:	WinNT
#	Modification time:	15. 06. 2019 20:46

#	Program:	/corina/corina34_cracker 3.40 0067  02.08.2006

@<TRIPOS>MOLECULE
ASD03731807
  34   35    0    0    0
SMALL
NO_CHARGES


@<TRIPOS>ATOM
   1 C1             0.3769     1.0943     1.9788 C.2     
   2 C2             0.2928    -0.2820     1.4521 C.ar    
   3 C3             1.3752    -0.8357     0.7627 C.ar    
   4 C4             1.2927    -2.1208     0.2730 C.ar    
   5 C5             0.1338    -2.8666     0.4644 C.ar    
   6 C6            -0.9441    -2.3186     1.1490 C.ar    
   7 C7            -0.8669    -1.0365     1.6464 C.ar    
   8 O8             1.3887     1.7478     1.8132 O.2     
   9 N9            -0.6699     1.6286     2.6385 N.am    
  10 S10           -0.5755     3.1727     3.2294 S.o2    
  11 O11           -1.8264     3.3793     3.8712 O.2     
  12 O12            0.6386     3.1918     3.9676 O.2     
  13 C13           -0.4384     4.2154     1.7514 C.3     
  14 O14            0.0558    -4.1323    -0.0192 O.3     
  15 C15           -1.1288    -4.7856     0.0930 C.ar    
  16 C16           -2.0826    -4.6685    -0.9111 C.ar    
  17 C17           -3.2860    -5.3293    -0.8009 C.ar    
  18 C18           -3.5472    -6.1187     0.3224 C.ar    
  19 C19           -2.5851    -6.2341     1.3296 C.ar    
  20 C20           -1.3822    -5.5741     1.2091 C.ar    
  21 C21           -4.7972    -6.8071     0.4413 C.1     
  22 N22           -5.7889    -7.3531     0.5356 N.1     
  23 Cl23           2.6359    -2.8101    -0.5840 Cl      
  24 H24            2.2747    -0.2568     0.6137 H       
  25 H25           -1.8422    -2.9004     1.2949 H       
  26 H26           -1.7036    -0.6132     2.1822 H       
  27 H27           -1.4786     1.1086     2.7671 H       
  28 H28           -1.3179     4.0731     1.1235 H       
  29 H29           -0.3705     5.2615     2.0499 H       
  30 H30            0.4556     3.9381     1.1928 H       
  31 H31           -1.8800    -4.0583    -1.7788 H       
  32 H32           -4.0269    -5.2372    -1.5812 H       
  33 H33           -2.7830    -6.8431     2.1993 H       
  34 H34           -0.6365    -5.6663     1.9849 H       
@<TRIPOS>BOND
   1    1    2 1
   2    1    8 2
   3    1    9 am
   4    2    3 ar
   5    2    7 ar
   6    3    4 ar
   7    3   24 1
   8    4    5 ar
   9    4   23 1
  10    5    6 ar
  11    5   14 1
  12    6    7 ar
  13    6   25 1
  14    7   26 1
  15    9   10 am
  16    9   27 1
  17   10   11 2
  18   10   12 2
  19   10   13 1
  20   13   28 1
  21   13   29 1
  22   13   30 1
  23   14   15 1
  24   15   16 ar
  25   15   20 ar
  26   16   17 ar
  27   16   31 1
  28   17   18 ar
  29   17   32 1
  30   18   19 ar
  31   18   21 1
  32   19   20 ar
  33   19   33 1
  34   20   34 1
  35   21   22 3

#	End of record

