#	Name: ASD01916180
#	Creating user name:	WinNT
#	Creation time:	15. 06. 2019 20:06

#	Modifying user name:	WinNT
#	Modification time:	15. 06. 2019 20:06

#	Program:	/corina/corina34_cracker 3.40 0067  02.08.2006

@<TRIPOS>MOLECULE
ASD01916180
  40   42    0    0    0
SMALL
NO_CHARGES


@<TRIPOS>ATOM
   1 C1            -0.4100     1.7399     0.1050 C.ar    
   2 C2            -0.5426     0.3896     0.3737 C.ar    
   3 N3             0.5007    -0.3403     0.7071 N.ar    
   4 C4             1.7185     0.1814     0.8000 C.ar    
   5 C5             1.9317     1.5323     0.5447 C.ar    
   6 C6             0.8478     2.3310     0.1897 C.ar    
   7 C7            -1.9016    -0.2553     0.2841 C.3     
   8 O8             1.0134     3.6534    -0.0680 O.3     
   9 C9             2.2650     4.1721     0.0374 C.ar    
  10 C10            3.1951     3.9760    -0.9732 C.ar    
  11 N11            4.4107     4.4767    -0.8766 N.ar    
  12 C12            4.7919     5.1783     0.1725 C.ar    
  13 C13            3.9203     5.4173     1.2220 C.ar    
  14 C14            2.6298     4.9121     1.1577 C.ar    
  15 C15            2.8602    -0.6829     1.1795 C.2     
  16 N16            2.6605    -1.9923     1.4286 N.am    
  17 O17            3.9768    -0.2113     1.2661 O.2     
  18 C18            3.7469    -2.8267     1.6821 C.ar    
  19 C19            3.5461    -4.1948     1.8228 C.ar    
  20 C20            4.6338    -5.0132     2.0746 C.ar    
  21 C21            5.8897    -4.4327     2.1773 C.ar    
  22 C22            6.0170    -3.0639     2.0263 C.ar    
  23 N23            4.9619    -2.3096     1.7814 N.ar    
  24 C24           -1.8385    -1.4470    -0.6734 C.3     
  25 F25            4.3187     6.1416     2.2905 F       
  26 Cl26           7.5848    -2.3296     2.1539 Cl      
  27 H27           -1.2722     2.3284    -0.1720 H       
  28 H28            2.9226     1.9550     0.6211 H       
  29 H29           -2.2066    -0.5991     1.2724 H       
  30 H30           -2.6247     0.4711    -0.0871 H       
  31 H31            2.9202     3.4065    -1.8487 H       
  32 H32            5.7970     5.5715     0.2142 H       
  33 H33            1.9281     5.0827     1.9607 H       
  34 H34            1.7604    -2.3537     1.4313 H       
  35 H35            2.5544    -4.6138     1.7372 H       
  36 H36            4.5075    -6.0797     2.1888 H       
  37 H37            6.7587    -5.0432     2.3735 H       
  38 H38           -1.5336    -1.1031    -1.6618 H       
  39 H39           -1.1155    -2.1733    -0.3023 H       
  40 H40           -2.8215    -1.9134    -0.7383 H       
@<TRIPOS>BOND
   1    1    2 ar
   2    1    6 ar
   3    1   27 1
   4    2    3 ar
   5    2    7 1
   6    3    4 ar
   7    4    5 ar
   8    4   15 1
   9    5    6 ar
  10    5   28 1
  11    6    8 1
  12    7   24 1
  13    7   29 1
  14    7   30 1
  15    8    9 1
  16    9   10 ar
  17    9   14 ar
  18   10   11 ar
  19   10   31 1
  20   11   12 ar
  21   12   13 ar
  22   12   32 1
  23   13   14 ar
  24   13   25 1
  25   14   33 1
  26   15   16 am
  27   15   17 2
  28   16   18 1
  29   16   34 1
  30   18   19 ar
  31   18   23 ar
  32   19   20 ar
  33   19   35 1
  34   20   21 ar
  35   20   36 1
  36   21   22 ar
  37   21   37 1
  38   22   23 ar
  39   22   26 1
  40   24   38 1
  41   24   39 1
  42   24   40 1

#	End of record

