#	Name: ASD01913037
#	Creating user name:	WinNT
#	Creation time:	15. 06. 2019 20:00

#	Modifying user name:	WinNT
#	Modification time:	15. 06. 2019 20:00

#	Program:	/corina/corina34_cracker 3.40 0067  02.08.2006

@<TRIPOS>MOLECULE
ASD01913037
  28   28    0    0    0
SMALL
NO_CHARGES


@<TRIPOS>ATOM
   1 C1            -0.0169     1.3954     0.0097 C.ar    
   2 C2             0.0021    -0.0041     0.0020 C.ar    
   3 C3            -1.2591    -0.7596     0.0095 C.2     
   4 C4            -2.5761    -0.0272     0.0255 C.3     
   5 O5            -1.2396    -1.9721     0.0028 O.2     
   6 C6            -3.7056    -1.0249     0.0305 C.2     
   7 C7            -5.1342    -0.5455     0.0462 C.3     
   8 O8            -3.4658    -2.2084     0.0220 O.2     
   9 C9            -6.0766    -1.7509     0.0483 C.3     
  10 C10            1.2266    -0.6809    -0.0133 C.ar    
  11 C11            2.4048     0.0331    -0.0207 C.ar    
  12 C12            2.3789     1.4198    -0.0130 C.ar    
  13 C13            1.1682     2.0971     0.0022 C.ar    
  14 F14            3.5378     2.1141    -0.0204 F       
  15 C15            3.7246    -0.6942    -0.0367 C.3     
  16 H16           -0.9588     1.9238     0.0170 H       
  17 H17           -2.6357     0.5936     0.9194 H       
  18 H18           -2.6520     0.6032    -0.8604 H       
  19 H19           -5.3070     0.0524     0.9410 H       
  20 H20           -5.3233     0.0620    -0.8388 H       
  21 H21           -5.9037    -2.3488    -0.8465 H       
  22 H22           -5.8874    -2.3583     0.9334 H       
  23 H23           -7.1099    -1.4041     0.0597 H       
  24 H24            1.2481    -1.7607    -0.0190 H       
  25 H25            1.1549     3.1770     0.0085 H       
  26 H26            4.0331    -0.8644    -1.0682 H       
  27 H27            4.4771    -0.0927     0.4731 H       
  28 H28            3.6180    -1.6516     0.4733 H       
@<TRIPOS>BOND
   1    1    2 ar
   2    1   13 ar
   3    1   16 1
   4    2    3 1
   5    2   10 ar
   6    3    4 1
   7    3    5 2
   8    4    6 1
   9    4   17 1
  10    4   18 1
  11    6    7 1
  12    6    8 2
  13    7    9 1
  14    7   19 1
  15    7   20 1
  16    9   21 1
  17    9   22 1
  18    9   23 1
  19   10   11 ar
  20   10   24 1
  21   11   12 ar
  22   11   15 1
  23   12   13 ar
  24   12   14 1
  25   13   25 1
  26   15   26 1
  27   15   27 1
  28   15   28 1

#	End of record

