#	Name: ASD03240492
#	Creating user name:	WinNT
#	Creation time:	15. 06. 2019 20:35

#	Modifying user name:	WinNT
#	Modification time:	15. 06. 2019 20:35

#	Program:	/corina/corina34_cracker 3.40 0067  02.08.2006

@<TRIPOS>MOLECULE
ASD03240492
  37   39    0    0    0
SMALL
NO_CHARGES


@<TRIPOS>ATOM
   1 C1            -0.0167     1.3789     0.0096 C.ar    
   2 C2             0.0021    -0.0041     0.0020 C.ar    
   3 C3             1.1677     2.0877     0.0021 C.ar    
   4 C4             2.3833     1.4077    -0.0132 C.ar    
   5 C5             2.3965     0.0147    -0.0208 C.ar    
   6 C6             1.2064    -0.6842    -0.0127 C.ar    
   7 C7             3.6605     2.1648    -0.0218 C.2     
   8 C8             4.9152     1.6292    -0.0368 C.2     
   9 N9             5.7949     2.6510    -0.0407 N.pl3   
  10 N10            5.0725     3.8503    -0.0278 N.2     
  11 C11            3.7970     3.5667    -0.0222 C.2     
  12 C12           -1.2942    -0.7726     0.0103 C.3     
  13 C13           -1.7467    -1.0249    -1.4293 C.3     
  14 C14           -2.9755    -1.8973    -1.4240 C.ar    
  15 N15           -2.0588     0.2565    -2.0762 N.3     
  16 C16           -2.8625    -3.2520    -1.6752 C.ar    
  17 C17           -4.2149    -1.3440    -1.1623 C.ar    
  18 C18           -5.3421    -2.1442    -1.1575 C.ar    
  19 C19           -5.2299    -3.4978    -1.4147 C.ar    
  20 C20           -3.9896    -4.0522    -1.6704 C.ar    
  21 H21           -0.9598     1.9052     0.0170 H       
  22 H22            1.1520     3.1676     0.0077 H       
  23 H23            3.3363    -0.5173    -0.0327 H       
  24 H24            1.2154    -1.7642    -0.0183 H       
  25 H25            5.1596     0.5773    -0.0441 H       
  26 H26            6.7614     2.5693    -0.0503 H       
  27 H27            2.9883     4.2825    -0.0123 H       
  28 H28           -1.1480    -1.7262     0.5177 H       
  29 H29           -2.0556    -0.1951     0.5346 H       
  30 H30           -0.9488    -1.5245    -1.9787 H       
  31 H31           -2.2983     0.1225    -3.0472 H       
  32 H32           -2.7963     0.7393    -1.5852 H       
  33 H33           -1.8936    -3.6850    -1.8756 H       
  34 H34           -4.3026    -0.2865    -0.9613 H       
  35 H35           -6.3103    -1.7120    -0.9523 H       
  36 H36           -6.1104    -4.1231    -1.4106 H       
  37 H37           -3.9019    -5.1097    -1.8714 H       
@<TRIPOS>BOND
   1    1    2 ar
   2    1    3 ar
   3    1   21 1
   4    2   12 1
   5    2    6 ar
   6    3    4 ar
   7    3   22 1
   8    4    5 ar
   9    4    7 1
  10    5    6 ar
  11    5   23 1
  12    6   24 1
  13    7    8 2
  14    7   11 1
  15    8    9 1
  16    8   25 1
  17    9   10 1
  18    9   26 1
  19   10   11 2
  20   11   27 1
  21   12   13 1
  22   12   28 1
  23   12   29 1
  24   13   14 1
  25   13   15 1
  26   13   30 1
  27   14   16 ar
  28   14   17 ar
  29   15   31 1
  30   15   32 1
  31   16   20 ar
  32   16   33 1
  33   17   18 ar
  34   17   34 1
  35   18   19 ar
  36   18   35 1
  37   19   20 ar
  38   19   36 1
  39   20   37 1

#	End of record

