#	Name: ASD01883580
#	Creating user name:	WinNT
#	Creation time:	15. 06. 2019 19:46

#	Modifying user name:	WinNT
#	Modification time:	15. 06. 2019 19:46

#	Program:	/corina/corina34_cracker 3.40 0067  02.08.2006

@<TRIPOS>MOLECULE
ASD01883580
  50   52    0    0    0
SMALL
NO_CHARGES


@<TRIPOS>ATOM
   1 C1            -0.5315     1.4682     0.1674 C.2     
   2 C2            -0.6553     0.1340     0.3273 C.2     
   3 N3             0.3098    -0.5879     0.9567 N.am    
   4 C4             1.4184     0.0026     1.4397 C.2     
   5 C5             1.5974     1.3861     1.3000 C.2     
   6 C6             0.6168     2.1309     0.6591 C.2     
   7 O7             2.2704    -0.6681     2.0014 O.2     
   8 Cl8            3.0242     2.1566     1.9199 Cl      
   9 C9             0.7710     3.5933     0.4925 C.ar    
  10 C10            0.0310     4.4713     1.2895 C.ar    
  11 C11            0.1786     5.8352     1.1301 C.ar    
  12 C12            1.0601     6.3326     0.1801 C.ar    
  13 C13            1.7967     5.4613    -0.6138 C.ar    
  14 C14            1.6601     4.0995    -0.4569 C.ar    
  15 O15            1.2030     7.6742     0.0258 O.3     
  16 C16            2.1290     8.3084     0.7890 C.ar    
  17 C17            2.9813     7.5888     1.6228 C.ar    
  18 C18            3.9097     8.2706     2.3827 C.ar    
  19 N19            3.9951     9.5861     2.3259 N.ar    
  20 C20            3.2053    10.3027     1.5483 C.ar    
  21 C21            2.2549     9.6953     0.7540 C.ar    
  22 C22            0.1395    -2.0347     1.1122 C.3     
  23 C23            0.7438    -2.7522    -0.0965 C.3     
  24 C24            3.3471    11.8028     1.5239 C.3     
  25 C25            0.5660    -4.2631     0.0659 C.3     
  26 C26            1.1703    -4.9806    -1.1427 C.3     
  27 F27           -0.8271     3.9868     2.2136 F       
  28 C28            1.3578    10.5217    -0.1310 C.3     
  29 H29           -1.3048     2.0274    -0.3383 H       
  30 H30           -1.5342    -0.3677    -0.0499 H       
  31 H31           -0.3926     6.5152     1.7447 H       
  32 H32            2.4811     5.8528    -1.3519 H       
  33 H33            2.2332     3.4242    -1.0748 H       
  34 H34            2.9164     6.5120     1.6742 H       
  35 H35            4.5745     7.7207     3.0323 H       
  36 H36            0.6444    -2.3644     2.0202 H       
  37 H37           -0.9225    -2.2702     1.1810 H       
  38 H38            0.2390    -2.4224    -1.0045 H       
  39 H39            1.8059    -2.5166    -0.1653 H       
  40 H40            4.0639    12.0875     0.7537 H       
  41 H41            2.3800    12.2557     1.3054 H       
  42 H42            3.6999    12.1503     2.4949 H       
  43 H43            1.0709    -4.5928     0.9740 H       
  44 H44           -0.4960    -4.4986     0.1347 H       
  45 H45            1.0436    -6.0570    -1.0270 H       
  46 H46            0.6655    -4.6509    -2.0508 H       
  47 H47            2.2323    -4.7450    -1.2115 H       
  48 H48            1.8262    10.6472    -1.1072 H       
  49 H49            0.3995    10.0163    -0.2502 H       
  50 H50            1.1989    11.4993     0.3241 H       
@<TRIPOS>BOND
   1    1    2 2
   2    1    6 1
   3    1   29 1
   4    2    3 1
   5    2   30 1
   6    3    4 am
   7    3   22 1
   8    4    5 1
   9    4    7 2
  10    5    6 2
  11    5    8 1
  12    6    9 1
  13    9   10 ar
  14    9   14 ar
  15   10   11 ar
  16   10   27 1
  17   11   12 ar
  18   11   31 1
  19   12   13 ar
  20   12   15 1
  21   13   14 ar
  22   13   32 1
  23   14   33 1
  24   15   16 1
  25   16   17 ar
  26   16   21 ar
  27   17   18 ar
  28   17   34 1
  29   18   19 ar
  30   18   35 1
  31   19   20 ar
  32   20   21 ar
  33   20   24 1
  34   21   28 1
  35   22   23 1
  36   22   36 1
  37   22   37 1
  38   23   25 1
  39   23   38 1
  40   23   39 1
  41   24   40 1
  42   24   41 1
  43   24   42 1
  44   25   26 1
  45   25   43 1
  46   25   44 1
  47   26   45 1
  48   26   46 1
  49   26   47 1
  50   28   48 1
  51   28   49 1
  52   28   50 1

#	End of record

