#	Name: ASD03240581
#	Creating user name:	WinNT
#	Creation time:	15. 06. 2019 20:35

#	Modifying user name:	WinNT
#	Modification time:	15. 06. 2019 20:35

#	Program:	/corina/corina34_cracker 3.40 0067  02.08.2006

@<TRIPOS>MOLECULE
ASD03240581
  75   82    0    0    0
SMALL
NO_CHARGES


@<TRIPOS>ATOM
   1 C1             1.5147     1.2409     2.1011 C.ar    
   2 C2             1.7610    -0.0863     2.3863 C.ar    
   3 N3             2.9933    -0.5568     2.4208 N.ar    
   4 C4             4.0452     0.2160     2.1861 C.ar    
   5 C5             3.8694     1.5635     1.8778 C.ar    
   6 C6             2.5839     2.0879     1.8404 C.ar    
   7 N7             5.3219    -0.3324     2.2727 N.pl3   
   8 C8             6.2275     0.1241     3.2265 C.ar    
   9 C9             6.6701     1.4511     3.2091 C.ar    
  10 C10            6.2010     2.3777     2.1555 C.2     
  11 N11            4.9595     2.3962     1.5873 N.pl3   
  12 C12            6.6955    -0.7414     4.2062 C.ar    
  13 C13            7.5839    -0.2884     5.1627 C.ar    
  14 C14            8.0133     1.0276     5.1537 C.ar    
  15 C15            7.5623     1.8991     4.1829 C.ar    
  16 N16            6.9339     3.3289     1.6122 N.2     
  17 C17            6.2147     3.9828     0.6872 C.2     
  18 C18            4.9546     3.4095     0.6486 C.2     
  19 C19            3.8305     3.8032    -0.2222 C.ar    
  20 C20            3.5106     5.1531    -0.3882 C.ar    
  21 C21            3.0845     2.8282    -0.8893 C.ar    
  22 C22            2.0351     3.2037    -1.7017 C.ar    
  23 C23            1.7203     4.5423    -1.8568 C.ar    
  24 C24            2.4584     5.5138    -1.2037 C.ar    
  25 C25            6.6842     5.1155    -0.1439 C.ar    
  26 C26            0.5722     4.9444    -2.7462 C.3     
  27 N27           -0.3777     3.8489    -2.9818 N.3     
  28 C28           -0.0995     6.2627    -2.3269 C.3     
  29 C29           -0.1950     6.5991    -3.8244 C.3     
  30 C30            1.0117     5.6657    -4.0313 C.3     
  31 C31            6.2333     5.2529    -1.4570 C.ar    
  32 C32            7.5736     6.0501     0.3869 C.ar    
  33 C33            8.0086     7.1035    -0.3885 C.ar    
  34 C34            7.5615     7.2353    -1.6982 C.ar    
  35 C35            6.6714     6.3082    -2.2280 C.ar    
  36 N36            8.0033     8.3037    -2.4813 N.am    
  37 S37            8.5125     8.0369    -4.0343 S.o2    
  38 C38            9.9024     6.9572    -3.9494 C.ar    
  39 O39            7.4761     7.3070    -4.6766 O.2     
  40 O40            9.0001     9.2816    -4.5162 O.2     
  41 C41            9.7294     5.5944    -4.1034 C.ar    
  42 C42           10.8198     4.7474    -4.0367 C.ar    
  43 C43           12.0833     5.2633    -3.8164 C.ar    
  44 C44           12.2563     6.6262    -3.6633 C.ar    
  45 C45           11.1665     7.4736    -3.7343 C.ar    
  46 H46            0.5022     1.6157     2.0765 H       
  47 H47            0.9326    -0.7502     2.5848 H       
  48 H48            2.4195     3.1309     1.6133 H       
  49 H49            5.5829    -1.0398     1.6625 H       
  50 H50            6.3646    -1.7694     4.2208 H       
  51 H51            7.9454    -0.9654     5.9225 H       
  52 H52            8.7035     1.3736     5.9089 H       
  53 H53            7.8987     2.9254     4.1781 H       
  54 H54            4.0855     5.9123     0.1212 H       
  55 H55            3.3293     1.7832    -0.7694 H       
  56 H56            1.4578     2.4511    -2.2182 H       
  57 H57            2.2071     6.5566    -1.3294 H       
  58 H58            0.1017     3.0120    -3.2782 H       
  59 H59           -0.9379     3.6733    -2.1612 H       
  60 H60           -1.0688     6.1256    -1.8475 H       
  61 H61            0.5584     6.9302    -1.7704 H       
  62 H62           -1.1097     6.2390    -4.2953 H       
  63 H63            0.0161     7.6440    -4.0515 H       
  64 H64            1.9740     6.1696    -3.9411 H       
  65 H65            0.9381     5.0489    -4.9270 H       
  66 H66            5.5418     4.5328    -1.8691 H       
  67 H67            7.9208     5.9486     1.4045 H       
  68 H68            8.6972     7.8273     0.0219 H       
  69 H69            6.3258     6.4127    -3.2459 H       
  70 H70            8.0120     9.2021    -2.1156 H       
  71 H71            8.7423     5.1914    -4.2755 H       
  72 H72           10.6846     3.6826    -4.1563 H       
  73 H73           12.9351     4.6014    -3.7636 H       
  74 H74           13.2434     7.0291    -3.4908 H       
  75 H75           11.3017     8.5384    -3.6147 H       
@<TRIPOS>BOND
   1    1    2 ar
   2    1    6 ar
   3    1   46 1
   4    2    3 ar
   5    2   47 1
   6    3    4 ar
   7    4    5 ar
   8    4    7 1
   9    5    6 ar
  10    5   11 1
  11    6   48 1
  12    7    8 1
  13    7   49 1
  14    8    9 ar
  15    8   12 ar
  16    9   10 1
  17    9   15 ar
  18   10   11 1
  19   10   16 2
  20   11   18 1
  21   12   13 ar
  22   12   50 1
  23   13   14 ar
  24   13   51 1
  25   14   15 ar
  26   14   52 1
  27   15   53 1
  28   16   17 1
  29   17   18 2
  30   17   25 1
  31   18   19 1
  32   19   20 ar
  33   19   21 ar
  34   20   24 ar
  35   20   54 1
  36   21   22 ar
  37   21   55 1
  38   22   23 ar
  39   22   56 1
  40   23   24 ar
  41   23   26 1
  42   24   57 1
  43   25   32 ar
  44   25   31 ar
  45   26   27 1
  46   26   28 1
  47   26   30 1
  48   27   58 1
  49   27   59 1
  50   28   29 1
  51   28   60 1
  52   28   61 1
  53   29   30 1
  54   29   62 1
  55   29   63 1
  56   30   64 1
  57   30   65 1
  58   31   35 ar
  59   31   66 1
  60   32   33 ar
  61   32   67 1
  62   33   34 ar
  63   33   68 1
  64   34   35 ar
  65   34   36 1
  66   35   69 1
  67   36   37 am
  68   36   70 1
  69   37   38 1
  70   37   39 2
  71   37   40 2
  72   38   41 ar
  73   38   45 ar
  74   41   42 ar
  75   41   71 1
  76   42   43 ar
  77   42   72 1
  78   43   44 ar
  79   43   73 1
  80   44   45 ar
  81   44   74 1
  82   45   75 1

#	End of record

