#	Name: ASD01900017
#	Creating user name:	WinNT
#	Creation time:	15. 06. 2019 19:51

#	Modifying user name:	WinNT
#	Modification time:	15. 06. 2019 19:51

#	Program:	/corina/corina34_cracker 3.40 0067  02.08.2006

@<TRIPOS>MOLECULE
ASD01900017
  41   42    0    0    0
SMALL
NO_CHARGES


@<TRIPOS>ATOM
   1 C1            -0.0109     1.5320    -0.0080 C.3     
   2 C2             0.0066     0.0021    -0.0140 C.3     
   3 C3             0.7272    -0.4948    -1.2689 C.3     
   4 C4             2.1638     0.0317    -1.2743 C.3     
   5 C5             2.1463     1.5616    -1.2683 C.3     
   6 C6             1.4257     2.0585    -0.0134 C.3     
   7 C7             3.5612     2.0802    -1.2736 C.2     
   8 C8             2.8862    -0.4671    -0.0494 C.2     
   9 O9             3.7914     3.4026    -1.2697 O.3     
  10 N10            3.0256    -1.7915     0.1581 N.am    
  11 O11            4.4885     1.3056    -1.2814 O.2     
  12 O12            3.3422     0.3232     0.7497 O.2     
  13 C13            3.7910    -2.2544     1.2341 C.ar    
  14 C14            4.9233    -1.5567     1.6336 C.ar    
  15 C15            5.6764    -2.0159     2.6964 C.ar    
  16 C16            5.3043    -3.1693     3.3621 C.ar    
  17 C17            4.1773    -3.8664     2.9668 C.ar    
  18 C18            3.4167    -3.4093     1.9084 C.ar    
  19 C19            3.7754    -5.1229     3.6951 C.3     
  20 C20            6.9053    -1.2594     3.1306 C.3     
  21 H21            1.6237     1.9225    -2.1542 H       
  22 H22            2.6771    -0.3223    -2.1683 H       
  23 H23           -0.5334     1.8929    -0.8940 H       
  24 H24           -0.5242     1.8860     0.8860 H       
  25 H25            0.5292    -0.3587     0.8719 H       
  26 H26           -1.0168    -0.3729    -0.0102 H       
  27 H27            0.7397    -1.5847    -1.2731 H       
  28 H28            0.2047    -0.1339    -2.1548 H       
  29 H29            1.4132     3.1484    -0.0092 H       
  30 H30            1.9482     1.6977     0.8725 H       
  31 H31            4.7155     3.6874    -1.2734 H       
  32 H32            2.5953    -2.4238    -0.4385 H       
  33 H33            5.2149    -0.6561     1.1136 H       
  34 H34            5.8952    -3.5268     4.1924 H       
  35 H35            2.5367    -3.9541     1.6001 H       
  36 H36            3.1067    -4.8682     4.5173 H       
  37 H37            3.2640    -5.7947     3.0057 H       
  38 H38            4.6648    -5.6148     4.0891 H       
  39 H39            6.6297    -0.5190     3.8816 H       
  40 H40            7.6293    -1.9551     3.5548 H       
  41 H41            7.3458    -0.7568     2.2695 H       
@<TRIPOS>BOND
   1    1    2 1
   2    1    6 1
   3    1   23 1
   4    1   24 1
   5    2    3 1
   6    2   25 1
   7    2   26 1
   8    3    4 1
   9    3   27 1
  10    3   28 1
  11    4    5 1
  12    4    8 1
  13    4   22 1
  14    5    6 1
  15    5    7 1
  16    5   21 1
  17    6   29 1
  18    6   30 1
  19    7    9 1
  20    7   11 2
  21    8   10 am
  22    8   12 2
  23    9   31 1
  24   10   13 1
  25   10   32 1
  26   13   14 ar
  27   13   18 ar
  28   14   15 ar
  29   14   33 1
  30   15   16 ar
  31   15   20 1
  32   16   17 ar
  33   16   34 1
  34   17   18 ar
  35   17   19 1
  36   18   35 1
  37   19   36 1
  38   19   37 1
  39   19   38 1
  40   20   39 1
  41   20   40 1
  42   20   41 1

#	End of record

