#	Name: ASD08390029
#	Creating user name:	WinNT
#	Creation time:	15. 06. 2019 21:19

#	Modifying user name:	WinNT
#	Modification time:	15. 06. 2019 21:19

#	Program:	/corina/corina34_cracker 3.40 0067  02.08.2006

@<TRIPOS>MOLECULE
ASD08390029
  37   39    0    0    0
SMALL
NO_CHARGES


@<TRIPOS>ATOM
   1 N1            -0.0179     1.4651     0.0101 N.2     
   2 C2             0.0021    -0.0041     0.0020 C.3     
   3 C3             1.5024    -0.3580    -0.0142 C.3     
   4 N4             2.1606     0.9592    -0.0134 N.pl3   
   5 C5             1.1890     1.9264     0.0011 C.2     
   6 C6             1.8775    -1.1405     1.2179 C.ar    
   7 C7             1.4963     3.3750     0.0059 C.ar    
   8 C8             0.4618     4.3101     0.0208 C.ar    
   9 C9             0.7545     5.6586     0.0252 C.ar    
  10 C10            2.0709     6.0835     0.0144 C.ar    
  11 C11            3.1014     5.1607    -0.0009 C.ar    
  12 C12            2.8215     3.8095     0.0013 C.ar    
  13 C13            2.0028    -2.5155     1.1519 C.ar    
  14 C14            2.1017    -0.4826     2.4128 C.ar    
  15 C15            2.4457    -1.2003     3.5431 C.ar    
  16 C16            2.5650    -2.5760     3.4785 C.ar    
  17 C17            2.3467    -3.2333     2.2822 C.ar    
  18 C18           -0.6654    -0.5563     1.2631 C.3     
  19 C19           -0.6791    -0.5347    -1.2331 C.2     
  20 O20           -0.2549    -1.5260    -1.7783 O.2     
  21 O21           -1.7570     0.0941    -1.7276 O.3     
  22 H22            1.7566    -0.9143    -0.9164 H       
  23 H23            3.1178     1.1158    -0.0217 H       
  24 H24           -0.5664     3.9795     0.0285 H       
  25 H25           -0.0458     6.3837     0.0367 H       
  26 H26            2.2950     7.1400     0.0175 H       
  27 H27            4.1272     5.4985    -0.0096 H       
  28 H28            3.6268     3.0900    -0.0053 H       
  29 H29            1.8316    -3.0291     0.2174 H       
  30 H30            2.0084     0.5922     2.4633 H       
  31 H31            2.6215    -0.6862     4.4764 H       
  32 H32            2.8342    -3.1367     4.3614 H       
  33 H33            2.4400    -4.3081     2.2317 H       
  34 H34           -1.7075    -0.2379     1.2918 H       
  35 H35           -0.6184    -1.6452     1.2520 H       
  36 H36           -0.1460    -0.1791     2.1440 H       
  37 H37           -2.1597    -0.2836    -2.5215 H       
@<TRIPOS>BOND
   1    1    2 1
   2    1    5 2
   3    2    3 1
   4    2   18 1
   5    2   19 1
   6    3    4 1
   7    3    6 1
   8    3   22 1
   9    4    5 1
  10    4   23 1
  11    5    7 1
  12    6   13 ar
  13    6   14 ar
  14    7    8 ar
  15    7   12 ar
  16    8    9 ar
  17    8   24 1
  18    9   10 ar
  19    9   25 1
  20   10   11 ar
  21   10   26 1
  22   11   12 ar
  23   11   27 1
  24   12   28 1
  25   13   17 ar
  26   13   29 1
  27   14   15 ar
  28   14   30 1
  29   15   16 ar
  30   15   31 1
  31   16   17 ar
  32   16   32 1
  33   17   33 1
  34   18   34 1
  35   18   35 1
  36   18   36 1
  37   19   20 2
  38   19   21 1
  39   21   37 1

#	End of record

