#	Name: ASD03730801
#	Creating user name:	WinNT
#	Creation time:	15. 06. 2019 20:44

#	Modifying user name:	WinNT
#	Modification time:	15. 06. 2019 20:44

#	Program:	/corina/corina34_cracker 3.40 0067  02.08.2006

@<TRIPOS>MOLECULE
ASD03730801
  61   67    0    0    0
SMALL
NO_CHARGES


@<TRIPOS>ATOM
   1 O1            -1.9850    -0.3757     0.3084 O.3     
   2 C2            -1.3318    -1.6563     0.2219 C.3     
   3 C3            -0.0106    -1.3109    -0.4786 C.3     
   4 C4             0.1804     0.1465    -0.1544 C.ar    
   5 C5            -1.0461     0.6120     0.3160 C.ar    
   6 C6            -1.1590     1.9433     0.7105 C.ar    
   7 C7            -0.0770     2.7911     0.6275 C.ar    
   8 C8             1.1444     2.3225     0.1474 C.ar    
   9 C9             1.2635     0.9894    -0.2436 C.ar    
  10 N10            1.6238    -2.8018    -1.0532 N.am    
  11 C11            1.1241    -2.1585     0.0207 C.2     
  12 C12           -0.0761    -1.5639    -1.9555 C.ar    
  13 C13           -0.8856    -1.0956    -2.9663 C.ar    
  14 C14           -0.6924    -1.5286    -4.2660 C.ar    
  15 C15            0.3154    -2.4330    -4.5476 C.ar    
  16 C16            1.1285    -2.9056    -3.5387 C.ar    
  17 C17            0.9417    -2.4745    -2.2275 C.ar    
  18 O18            1.5145    -2.2466     1.1656 O.2     
  19 C19            3.5341     2.7742    -0.4271 C.ar    
  20 C20            2.3097     3.2360     0.0520 C.ar    
  21 C21            2.1971     4.5735     0.4407 C.ar    
  22 C22            3.3135     5.3851     0.3319 C.ar    
  23 C23            4.4931     4.8513    -0.1534 C.ar    
  24 N24            4.5691     3.5843    -0.5127 N.ar    
  25 C25            2.7512    -3.7356    -0.9956 C.3     
  26 C26            3.8948    -3.1934    -1.8137 C.ar    
  27 C27            4.6894    -4.0547    -2.5470 C.ar    
  28 C28            5.7384    -3.5574    -3.2974 C.ar    
  29 C29            5.9926    -2.1988    -3.3148 C.ar    
  30 C30            5.1975    -1.3374    -2.5823 C.ar    
  31 C31            4.1458    -1.8342    -1.8353 C.ar    
  32 C32            3.1924    -3.9028     0.4356 C.ar    
  33 C33            2.9384    -5.0862     1.1034 C.ar    
  34 C34            3.3430    -5.2395     2.4163 C.ar    
  35 C35            4.0020    -4.2096     3.0612 C.ar    
  36 C36            4.2569    -3.0266     2.3931 C.ar    
  37 C37            3.8561    -2.8748     1.0789 C.ar    
  38 H38           -1.1476    -2.0645     1.2157 H       
  39 H39           -1.9189    -2.3501    -0.3798 H       
  40 H40           -2.1024     2.3134     1.0840 H       
  41 H41           -0.1754     3.8217     0.9349 H       
  42 H42            2.2068     0.6185    -0.6164 H       
  43 H43           -1.6724    -0.3898    -2.7442 H       
  44 H44           -1.3272    -1.1614    -5.0588 H       
  45 H45            0.4661    -2.7711    -5.5622 H       
  46 H46            1.9130    -3.6121    -3.7662 H       
  47 H47            3.6364     1.7416    -0.7268 H       
  48 H48            1.2629     4.9642     0.8162 H       
  49 H49            3.2634     6.4240     0.6226 H       
  50 H50            5.3658     5.4816    -0.2399 H       
  51 H51            2.4438    -4.7015    -1.3963 H       
  52 H52            4.4908    -5.1162    -2.5334 H       
  53 H53            6.3596    -4.2304    -3.8697 H       
  54 H54            6.8127    -1.8103    -3.9005 H       
  55 H55            5.3964    -0.2759    -2.5956 H       
  56 H56            3.5223    -1.1608    -1.2659 H       
  57 H57            2.4235    -5.8908     0.5996 H       
  58 H58            3.1439    -6.1638     2.9383 H       
  59 H59            4.3175    -4.3292     4.0872 H       
  60 H60            4.7714    -2.2218     2.8971 H       
  61 H61            4.0584    -1.9519     0.5557 H       
@<TRIPOS>BOND
   1    1    2 1
   2    1    5 1
   3    2    3 1
   4    2   38 1
   5    2   39 1
   6    3    4 1
   7    3   11 1
   8    3   12 1
   9    4    5 ar
  10    4    9 ar
  11    5    6 ar
  12    6    7 ar
  13    6   40 1
  14    7    8 ar
  15    7   41 1
  16    8    9 ar
  17    8   20 1
  18    9   42 1
  19   10   11 am
  20   10   17 1
  21   10   25 1
  22   11   18 2
  23   12   13 ar
  24   12   17 ar
  25   13   14 ar
  26   13   43 1
  27   14   15 ar
  28   14   44 1
  29   15   16 ar
  30   15   45 1
  31   16   17 ar
  32   16   46 1
  33   19   20 ar
  34   19   24 ar
  35   19   47 1
  36   20   21 ar
  37   21   22 ar
  38   21   48 1
  39   22   23 ar
  40   22   49 1
  41   23   24 ar
  42   23   50 1
  43   25   26 1
  44   25   32 1
  45   25   51 1
  46   26   27 ar
  47   26   31 ar
  48   27   28 ar
  49   27   52 1
  50   28   29 ar
  51   28   53 1
  52   29   30 ar
  53   29   54 1
  54   30   31 ar
  55   30   55 1
  56   31   56 1
  57   32   33 ar
  58   32   37 ar
  59   33   34 ar
  60   33   57 1
  61   34   35 ar
  62   34   58 1
  63   35   36 ar
  64   35   59 1
  65   36   37 ar
  66   36   60 1
  67   37   61 1

#	End of record

