#	Name: ASD03730304
#	Creating user name:	WinNT
#	Creation time:	15. 06. 2019 20:44

#	Modifying user name:	WinNT
#	Modification time:	15. 06. 2019 20:44

#	Program:	/corina/corina34_cracker 3.40 0067  02.08.2006

@<TRIPOS>MOLECULE
ASD03730304
  79   85    0    0    0
SMALL
NO_CHARGES


@<TRIPOS>ATOM
   1 O1            -0.1516     1.3595     0.3108 O.3     
   2 C2            -0.1222    -0.0801     0.3235 C.3     
   3 O3             1.0878    -0.4039    -0.3862 O.3     
   4 C4             1.9172     0.6651    -0.2013 C.ar    
   5 C5             1.1539     1.7500     0.2244 C.ar    
   6 C6             3.2841     0.8019    -0.3621 C.ar    
   7 C7             3.9058     2.0203    -0.1064 C.ar    
   8 C8             3.1313     3.1005     0.3060 C.ar    
   9 C9             1.7693     2.9648     0.4755 C.ar    
  10 O10            5.2246     2.3592    -0.1837 O.3     
  11 C11            4.0711     4.2653     0.4662 C.3     
  12 C12            5.3430     3.7932    -0.2519 C.3     
  13 N13            3.4843     6.4401     0.8517 N.am    
  14 C14            3.5231     5.5260    -0.1384 C.2     
  15 C15            4.3316     4.5959     1.9056 C.ar    
  16 C16            4.8325     3.8738     2.9802 C.ar    
  17 C17            4.9558     4.4837     4.2283 C.ar    
  18 C18            4.5781     5.8026     4.3853 C.ar    
  19 C19            4.0808     6.5202     3.3165 C.ar    
  20 C20            3.9526     5.9243     2.0630 C.ar    
  21 O21            3.1829     5.6898    -1.2910 O.2     
  22 C22            3.0073     7.8143     0.6778 C.3     
  23 C23            1.5037     7.8711     0.9549 C.3     
  24 C24            1.0055     9.3062     0.7733 C.3     
  25 C25           -0.4982     9.3630     1.0504 C.3     
  26 C26           -0.9964    10.7982     0.8688 C.3     
  27 C27            5.2360     2.4574     2.8013 C.ar    
  28 C28            6.5872     2.1213     2.7126 C.ar    
  29 C29            6.9588     0.8026     2.5467 C.ar    
  30 C30            5.9896    -0.1882     2.4681 C.ar    
  31 C31            4.6445     0.1439     2.5556 C.ar    
  32 C32            4.2666     1.4592     2.7273 C.ar    
  33 O33            6.3582    -1.4857     2.3048 O.3     
  34 C34            5.3097    -2.4538     2.2317 C.3     
  35 C35            5.9050    -3.8264     2.0513 C.ar    
  36 C36            6.2213    -4.5918     3.1574 C.ar    
  37 C37            6.7701    -5.8560     2.9939 C.ar    
  38 C38            7.0003    -6.3509     1.7195 C.ar    
  39 C39            6.6817    -5.5812     0.6114 C.ar    
  40 C40            6.1283    -4.3197     0.7801 C.ar    
  41 O41            6.9066    -6.0634    -0.6391 O.3     
  42 C42            7.4739    -7.3713    -0.7377 C.3     
  43 O43            7.0818    -6.6079     4.0821 O.3     
  44 C44            7.6433    -7.8993     3.8390 C.3     
  45 Cl45           7.7993     3.3603     2.8103 Cl      
  46 H46           -0.0776    -0.4532     1.3467 H       
  47 H47           -0.9908    -0.4855    -0.1955 H       
  48 H48            3.8730    -0.0428    -0.6881 H       
  49 H49            1.1809     3.8086     0.8044 H       
  50 H50            6.2343     4.1337     0.2753 H       
  51 H51            5.3513     4.1323    -1.2878 H       
  52 H52            5.3452     3.9273     5.0680 H       
  53 H53            4.6723     6.2759     5.3515 H       
  54 H54            3.7885     7.5510     3.4524 H       
  55 H55            3.5300     8.4710     1.3732 H       
  56 H56            3.2009     8.1395    -0.3444 H       
  57 H57            0.9810     7.2143     0.2595 H       
  58 H58            1.3100     7.5458     1.9770 H       
  59 H59            1.5281     9.9630     1.4687 H       
  60 H60            1.1991     9.6315    -0.2489 H       
  61 H61           -1.0208     8.7063     0.3549 H       
  62 H62           -0.6918     9.0378     2.0725 H       
  63 H63           -0.4737    11.4550     1.5642 H       
  64 H64           -0.8027    11.1234    -0.1534 H       
  65 H65           -2.0676    10.8386     1.0662 H       
  66 H66            8.0044     0.5413     2.4775 H       
  67 H67            3.8930    -0.6294     2.4938 H       
  68 H68            3.2200     1.7159     2.7997 H       
  69 H69            4.7271    -2.4286     3.1526 H       
  70 H70            4.6619    -2.2246     1.3856 H       
  71 H71            6.0418    -4.2059     4.1499 H       
  72 H72            7.4276    -7.3343     1.5902 H       
  73 H73            5.8761    -3.7213    -0.0829 H       
  74 H74            8.4433    -7.3853    -0.2396 H       
  75 H75            6.8099    -8.0922    -0.2608 H       
  76 H76            7.6012    -7.6338    -1.7879 H       
  77 H77            8.5734    -7.7919     3.2810 H       
  78 H78            7.8449    -8.3927     4.7898 H       
  79 H79            6.9398    -8.4984     3.2608 H       
@<TRIPOS>BOND
   1    1    2 1
   2    1    5 1
   3    2    3 1
   4    2   46 1
   5    2   47 1
   6    3    4 1
   7    4    5 ar
   8    4    6 ar
   9    5    9 ar
  10    6    7 ar
  11    6   48 1
  12    7    8 ar
  13    7   10 1
  14    8    9 ar
  15    8   11 1
  16    9   49 1
  17   10   12 1
  18   11   12 1
  19   11   14 1
  20   11   15 1
  21   12   50 1
  22   12   51 1
  23   13   14 am
  24   13   20 1
  25   13   22 1
  26   14   21 2
  27   15   16 ar
  28   15   20 ar
  29   16   17 ar
  30   16   27 1
  31   17   18 ar
  32   17   52 1
  33   18   19 ar
  34   18   53 1
  35   19   20 ar
  36   19   54 1
  37   22   23 1
  38   22   55 1
  39   22   56 1
  40   23   24 1
  41   23   57 1
  42   23   58 1
  43   24   25 1
  44   24   59 1
  45   24   60 1
  46   25   26 1
  47   25   61 1
  48   25   62 1
  49   26   63 1
  50   26   64 1
  51   26   65 1
  52   27   28 ar
  53   27   32 ar
  54   28   29 ar
  55   28   45 1
  56   29   30 ar
  57   29   66 1
  58   30   31 ar
  59   30   33 1
  60   31   32 ar
  61   31   67 1
  62   32   68 1
  63   33   34 1
  64   34   35 1
  65   34   69 1
  66   34   70 1
  67   35   36 ar
  68   35   40 ar
  69   36   37 ar
  70   36   71 1
  71   37   38 ar
  72   37   43 1
  73   38   39 ar
  74   38   72 1
  75   39   40 ar
  76   39   41 1
  77   40   73 1
  78   41   42 1
  79   42   74 1
  80   42   75 1
  81   42   76 1
  82   43   44 1
  83   44   77 1
  84   44   78 1
  85   44   79 1

#	End of record

