#	Name: ASD01912443
#	Creating user name:	WinNT
#	Creation time:	15. 06. 2019 19:59

#	Modifying user name:	WinNT
#	Modification time:	15. 06. 2019 19:59

#	Program:	/corina/corina34_cracker 3.40 0067  02.08.2006

@<TRIPOS>MOLECULE
ASD01912443
  41   43    0    0    0
SMALL
NO_CHARGES


@<TRIPOS>ATOM
   1 C1             0.1490     1.1338     0.8143 C.ar    
   2 C2             0.0021    -0.0041     0.0020 C.ar    
   3 N3             1.2943     1.8099     0.7988 N.ar    
   4 N4             1.0075    -0.3923    -0.7721 N.ar    
   5 C5             2.1394     0.2897    -0.7767 C.ar    
   6 C6             2.2844     1.4116     0.0241 C.ar    
   7 C7            -0.9308     1.5662     1.6497 C.1     
   8 N8            -1.7874     1.9092     2.3123 N.1     
   9 N9            -1.1848    -0.7160     0.0100 N.3     
  10 C10           -0.9350    -2.1570    -0.1197 C.3     
  11 C11           -2.2370    -2.9246     0.1362 C.3     
  12 C12           -3.3031    -2.3704    -0.7856 C.2     
  13 C13           -3.4776    -0.8672    -0.8394 C.3     
  14 C14           -2.0967    -0.2303    -1.0333 C.3     
  15 C15           -4.0617    -3.1785    -1.5249 C.2     
  16 C16           -5.0629    -2.6287    -2.3887 C.1     
  17 C17           -5.8837    -2.1780    -3.0968 C.1     
  18 C18           -6.8849    -1.6283    -3.9605 C.ar    
  19 C19           -7.6782    -2.4806    -4.7341 C.ar    
  20 C20           -8.6404    -1.9334    -5.5629 C.ar    
  21 C21           -8.7816    -0.5523    -5.5944 C.ar    
  22 C22           -7.9634     0.2331    -4.8030 C.ar    
  23 N23           -7.0572    -0.3108    -4.0170 N.ar    
  24 C24           -8.1151     1.7320    -4.8357 C.3     
  25 H25            2.9559    -0.0290    -1.4076 H       
  26 H26            3.2132     1.9626     0.0136 H       
  27 H27           -0.5763    -2.3747    -1.1257 H       
  28 H28           -0.1836    -2.4627     0.6084 H       
  29 H29           -2.0861    -3.9840    -0.0713 H       
  30 H30           -2.5436    -2.7928     1.1739 H       
  31 H31           -4.1254    -0.6020    -1.6750 H       
  32 H32           -3.9173    -0.5145     0.0936 H       
  33 H33           -2.1835     0.8540    -0.9643 H       
  34 H34           -1.7054    -0.5022    -2.0136 H       
  35 H35           -3.9216    -4.2481    -1.4728 H       
  36 H36           -7.5414    -3.5507    -4.6855 H       
  37 H37           -9.2681    -2.5664    -6.1726 H       
  38 H38           -9.5240    -0.0952    -6.2319 H       
  39 H39           -8.8385     2.0406    -4.0811 H       
  40 H40           -7.1523     2.1992    -4.6286 H       
  41 H41           -8.4641     2.0405    -5.8212 H       
@<TRIPOS>BOND
   1    1    2 ar
   2    1    3 ar
   3    1    7 1
   4    2    4 ar
   5    2    9 1
   6    3    6 ar
   7    4    5 ar
   8    5    6 ar
   9    5   25 1
  10    6   26 1
  11    7    8 3
  12    9   10 1
  13    9   14 1
  14   10   11 1
  15   10   27 1
  16   10   28 1
  17   11   12 1
  18   11   29 1
  19   11   30 1
  20   12   13 1
  21   12   15 2
  22   13   14 1
  23   13   31 1
  24   13   32 1
  25   14   33 1
  26   14   34 1
  27   15   16 1
  28   15   35 1
  29   16   17 3
  30   17   18 1
  31   18   19 ar
  32   18   23 ar
  33   19   20 ar
  34   19   36 1
  35   20   21 ar
  36   20   37 1
  37   21   22 ar
  38   21   38 1
  39   22   23 ar
  40   22   24 1
  41   24   39 1
  42   24   40 1
  43   24   41 1

#	End of record

