#	Name: ASD01917073
#	Creating user name:	WinNT
#	Creation time:	15. 06. 2019 20:08

#	Modifying user name:	WinNT
#	Modification time:	15. 06. 2019 20:08

#	Program:	/corina/corina34_cracker 3.40 0067  02.08.2006

@<TRIPOS>MOLECULE
ASD01917073
  43   46    0    0    0
SMALL
NO_CHARGES


@<TRIPOS>ATOM
   1 C1            -0.0171     1.4091     0.0113 C.ar    
   2 C2             0.0024    -0.0031     0.0107 C.ar    
   3 C3            -1.1898    -0.7244     0.0228 C.ar    
   4 C4            -2.3844    -0.0618     0.0349 C.ar    
   5 C5            -2.4214     1.3379     0.0347 C.ar    
   6 C6            -1.2440     2.0757     0.0285 C.ar    
   7 N7             1.1573     2.0872     0.0007 N.2     
   8 C8             2.3036     1.4754    -0.0152 C.2     
   9 N9             2.4111     0.1131    -0.0135 N.am    
  10 C10            1.3146    -0.6722    -0.0019 C.2     
  11 C11           -3.7258     2.0375     0.0469 C.2     
  12 O12            1.4058    -1.8858    -0.0018 O.2     
  13 N13           -4.8712     1.3274     0.0581 N.am    
  14 C14           -6.0952     1.9817     0.1785 C.ar    
  15 C15           -7.2772     1.2554     0.0815 C.ar    
  16 C16            3.5825     2.2834    -0.0489 C.3     
  17 C17            4.1960     2.1834    -1.4433 C.3     
  18 C18            5.1095     0.9755    -1.5584 C.3     
  19 C19            4.3484    -0.3322    -1.4261 C.3     
  20 C20            3.7524    -0.4841    -0.0283 C.3     
  21 N21           -6.1225     3.2881     0.3896 N.ar    
  22 C22           -7.2597     3.9461     0.5099 C.ar    
  23 C23           -8.4708     3.2892     0.4191 C.ar    
  24 C24           -8.4857     1.9177     0.2033 C.ar    
  25 F25            5.7480     1.0056    -2.8028 F       
  26 F26            6.0784     1.0411    -0.5513 F       
  27 O27           -3.7638     3.2522     0.0467 O.2     
  28 H28           -1.1694    -1.8043     0.0223 H       
  29 H29           -3.3076    -0.6221     0.0443 H       
  30 H30           -1.2775     3.1552     0.0287 H       
  31 H31           -4.8434     0.3608    -0.0177 H       
  32 H32           -7.2520     0.1890    -0.0871 H       
  33 H33            3.3613     3.3262     0.1784 H       
  34 H34            4.2829     1.8886     0.6871 H       
  35 H35            3.3969     2.0980    -2.1797 H       
  36 H36            4.7715     3.0867    -1.6457 H       
  37 H37            3.5443    -0.3537    -2.1617 H       
  38 H38            5.0284    -1.1624    -1.6168 H       
  39 H39            4.3869     0.0263     0.6963 H       
  40 H40            3.6836    -1.5418     0.2260 H       
  41 H41           -7.2431     5.0121     0.6821 H       
  42 H42           -9.3968     3.8358     0.5192 H       
  43 H43           -9.4197     1.3806     0.1281 H       
@<TRIPOS>BOND
   1    1    2 ar
   2    1    7 1
   3    1    6 ar
   4    2    3 ar
   5    2   10 1
   6    3    4 ar
   7    3   28 1
   8    4    5 ar
   9    4   29 1
  10    5    6 ar
  11    5   11 1
  12    6   30 1
  13    7    8 2
  14    8    9 1
  15    8   16 1
  16    9   10 am
  17    9   20 1
  18   10   12 2
  19   11   27 2
  20   11   13 am
  21   13   14 1
  22   13   31 1
  23   14   21 ar
  24   14   15 ar
  25   15   24 ar
  26   15   32 1
  27   16   17 1
  28   16   33 1
  29   16   34 1
  30   17   18 1
  31   17   35 1
  32   17   36 1
  33   18   19 1
  34   18   25 1
  35   18   26 1
  36   19   20 1
  37   19   37 1
  38   19   38 1
  39   20   39 1
  40   20   40 1
  41   21   22 ar
  42   22   23 ar
  43   22   41 1
  44   23   24 ar
  45   23   42 1
  46   24   43 1

#	End of record

