#	Name: ASD02560016
#	Creating user name:	WinNT
#	Creation time:	15. 06. 2019 20:24

#	Modifying user name:	WinNT
#	Modification time:	15. 06. 2019 20:24

#	Program:	/corina/corina34_cracker 3.40 0067  02.08.2006

@<TRIPOS>MOLECULE
ASD02560016
  33   34    0    0    0
SMALL
NO_CHARGES


@<TRIPOS>ATOM
   1 C1            -0.4624     0.8929     0.6799 C.ar    
   2 C2            -0.2342    -0.4760     0.4614 C.ar    
   3 N3            -1.2723    -1.3048     0.4159 N.ar    
   4 C4            -2.4986    -0.8533     0.5728 C.ar    
   5 N5            -2.7626     0.4240     0.7804 N.ar    
   6 C6            -1.7891     1.3261     0.8460 C.ar    
   7 N7             0.7466     1.5041     0.6814 N.2     
   8 C8             1.6796     0.6189     0.4827 C.2     
   9 N9             1.1251    -0.6183     0.3409 N.pl3   
  10 N10           -2.0756     2.6623     1.0644 N.pl3   
  11 C11            1.8480    -1.8703     0.1039 C.3     
  12 C12            1.8868    -2.1603    -1.3979 C.3     
  13 O13            0.5593    -2.3946    -1.8722 O.3     
  14 C14            0.3866    -2.1370    -3.2672 C.3     
  15 P15            0.2971    -0.3378    -3.5464 P.3     
  16 C16            2.7467    -3.3992    -1.6560 C.3     
  17 O17            1.5996     0.2791    -3.2099 O.2     
  18 O18           -0.0491    -0.0511    -5.0924 O.3     
  19 O19           -0.8528     0.2936    -2.6129 O.3     
  20 H20           -3.3198    -1.5535     0.5299 H       
  21 H21            2.7372     0.8330     0.4365 H       
  22 H22           -2.9957     2.9498     1.1716 H       
  23 H23           -1.3561     3.3113     1.1102 H       
  24 H24            2.8659    -1.7794     0.4828 H       
  25 H25            1.3402    -2.6860     0.6185 H       
  26 H26            2.3144    -1.3056    -1.9221 H       
  27 H27            1.2310    -2.5489    -3.8200 H       
  28 H28           -0.5358    -2.6045    -3.6115 H       
  29 H29            3.7639    -3.2138    -1.3110 H       
  30 H30            2.3295    -4.2498    -1.1168 H       
  31 H31            2.7592    -3.6168    -2.7240 H       
  32 H32           -0.1126     0.8881    -5.3136 H       
  33 H33           -1.7353    -0.0652    -2.7790 H       
@<TRIPOS>BOND
   1    1    2 ar
   2    1    7 1
   3    1    6 ar
   4    2    3 ar
   5    2    9 1
   6    3    4 ar
   7    4    5 ar
   8    4   20 1
   9    5    6 ar
  10    6   10 1
  11    7    8 2
  12    8    9 1
  13    8   21 1
  14    9   11 1
  15   10   22 1
  16   10   23 1
  17   11   12 1
  18   11   24 1
  19   11   25 1
  20   12   13 1
  21   12   16 1
  22   12   26 1
  23   13   14 1
  24   14   15 1
  25   14   27 1
  26   14   28 1
  27   15   17 2
  28   15   18 1
  29   15   19 1
  30   16   29 1
  31   16   30 1
  32   16   31 1
  33   18   32 1
  34   19   33 1

#	End of record

