#	Name: ASD01870062
#	Creating user name:	WinNT
#	Creation time:	15. 06. 2019 19:38

#	Modifying user name:	WinNT
#	Modification time:	15. 06. 2019 19:38

#	Program:	/corina/corina34_cracker 3.40 0067  02.08.2006

@<TRIPOS>MOLECULE
ASD01870062
  49   52    0    0    0
SMALL
NO_CHARGES


@<TRIPOS>ATOM
   1 C1            -0.0332     1.5044     0.0192 C.ar    
   2 C2            -0.0678     0.2357    -0.5268 C.ar    
   3 N3             1.0372    -0.3903    -0.8651 N.ar    
   4 C4             2.2488     0.1558    -0.7039 C.ar    
   5 C5             2.3718     1.4303    -0.1614 C.ar    
   6 C6             1.1926     2.1264     0.2122 C.ar    
   7 S7             3.8341    -0.5014    -1.0845 S.3     
   8 C8             4.6635     0.9361    -0.5149 C.2     
   9 C9             3.7643     1.8745    -0.0549 C.2     
  10 C10            6.0504     1.2394    -0.4694 C.2     
  11 N11            6.4375     2.4333     0.0217 N.am    
  12 C12            5.5069     3.3210     0.4618 C.2     
  13 N13            4.2371     3.0569     0.4260 N.2     
  14 N14            1.2636     3.4004     0.7574 N.3     
  15 C15            7.7984     2.7592     0.0791 C.ar    
  16 O16            6.8758     0.4340    -0.8671 O.2     
  17 C17            0.5391     4.3702    -0.0748 C.3     
  18 C18            0.7604     3.4113     2.1374 C.3     
  19 C19            8.5417     2.4465     1.2097 C.ar    
  20 C20            9.8836     2.7687     1.2630 C.ar    
  21 C21           10.4871     3.4024     0.1922 C.ar    
  22 C22            9.7496     3.7155    -0.9348 C.ar    
  23 C23            8.4087     3.3904    -0.9967 C.ar    
  24 C24           11.9514     3.7530     0.2539 C.3     
  25 C25           12.7781     2.5896    -0.2974 C.3     
  26 C26            5.9630     4.6496     1.0074 C.3     
  27 C27            4.7439     5.4793     1.4151 C.3     
  28 H28           -0.9497     2.0083     0.2886 H       
  29 H29           -1.0202    -0.2506    -0.6781 H       
  30 H30           -0.5086     4.0779    -0.1448 H       
  31 H31            0.6108     5.3604     0.3753 H       
  32 H32            0.9776     4.3920    -1.0725 H       
  33 H33            1.3597     2.7360     2.7481 H       
  34 H34            0.8274     4.4218     2.5406 H       
  35 H35           -0.2793     3.0842     2.1476 H       
  36 H36            8.0708     1.9522     2.0465 H       
  37 H37           10.4622     2.5258     2.1419 H       
  38 H38           10.2236     4.2108    -1.7693 H       
  39 H39            7.8333     3.6348    -1.8774 H       
  40 H40           12.1368     4.6457    -0.3435 H       
  41 H41           12.2363     3.9428     1.2888 H       
  42 H42           13.8372     2.8432    -0.2528 H       
  43 H43           12.5927     1.6969     0.3000 H       
  44 H44           12.4932     2.3998    -1.3323 H       
  45 H45            6.5988     4.4861     1.8776 H       
  46 H46            6.5258     5.1830     0.2413 H       
  47 H47            5.0738     6.4403     1.8097 H       
  48 H48            4.1081     5.6427     0.5449 H       
  49 H49            4.1811     4.9458     2.1811 H       
@<TRIPOS>BOND
   1    1    2 ar
   2    1    6 ar
   3    1   28 1
   4    2    3 ar
   5    2   29 1
   6    3    4 ar
   7    4    5 ar
   8    4    7 1
   9    5    6 ar
  10    5    9 1
  11    6   14 1
  12    7    8 1
  13    8    9 2
  14    8   10 1
  15    9   13 1
  16   10   11 am
  17   10   16 2
  18   11   12 1
  19   11   15 1
  20   12   13 2
  21   12   26 1
  22   14   17 1
  23   14   18 1
  24   15   19 ar
  25   15   23 ar
  26   17   30 1
  27   17   31 1
  28   17   32 1
  29   18   33 1
  30   18   34 1
  31   18   35 1
  32   19   20 ar
  33   19   36 1
  34   20   21 ar
  35   20   37 1
  36   21   22 ar
  37   21   24 1
  38   22   23 ar
  39   22   38 1
  40   23   39 1
  41   24   25 1
  42   24   40 1
  43   24   41 1
  44   25   42 1
  45   25   43 1
  46   25   44 1
  47   26   27 1
  48   26   45 1
  49   26   46 1
  50   27   47 1
  51   27   48 1
  52   27   49 1

#	End of record

