#	Name: ASD01420123
#	Creating user name:	WinNT
#	Creation time:	15. 06. 2019 19:20

#	Modifying user name:	WinNT
#	Modification time:	15. 06. 2019 19:20

#	Program:	/corina/corina34_cracker 3.40 0067  02.08.2006

@<TRIPOS>MOLECULE
ASD01420123
  56   58    0    0    0
SMALL
NO_CHARGES


@<TRIPOS>ATOM
   1 C1            -0.2133     0.9155     0.1179 C.2     
   2 O2            -0.1086    -0.0744     0.8167 O.2     
   3 C3             0.9368     2.7414    -1.1722 C.3     
   4 N4             0.8894     1.5856    -0.2711 N.am    
   5 C5             2.2715     1.2985     0.1260 C.3     
   6 C6             3.1628     2.3067    -0.5542 C.ar    
   7 C7             4.5359     2.4799    -0.5199 C.ar    
   8 C8             5.1242     3.4978    -1.2453 C.ar    
   9 C9             4.3408     4.3447    -2.0073 C.ar    
  10 C10            2.9706     4.1720    -2.0423 C.ar    
  11 C11            2.3804     3.1524    -1.3151 C.ar    
  12 C12            6.6190     3.6852    -1.2058 C.3     
  13 C13            7.0047     4.4407     0.0675 C.3     
  14 O14            8.4000     4.7476     0.0351 O.3     
  15 N15            7.2775     2.3722    -1.2147 N.3     
  16 C16            6.9804     1.6426    -2.4546 C.3     
  17 C17            8.7270     2.5089    -1.0187 C.3     
  18 C18           -1.5452     1.3786    -0.3082 C.ar    
  19 C19           -2.5877     1.4805     0.6257 C.ar    
  20 C20           -3.8359     1.9170     0.2169 C.ar    
  21 C21           -4.0537     2.2516    -1.1116 C.ar    
  22 C22           -3.0210     2.1511    -2.0387 C.ar    
  23 C23           -1.7742     1.7240    -1.6435 C.ar    
  24 C24           -3.2674     2.5170    -3.4797 C.3     
  25 C25           -2.3331     3.6596    -3.8827 C.3     
  26 C26           -2.9982     1.3006    -4.3679 C.3     
  27 O27           -5.2792     2.6784    -1.5089 O.3     
  28 O28           -2.3730     1.1520     1.9242 O.3     
  29 H29            0.5326     2.4671    -2.1466 H       
  30 H30            0.3588     3.5633    -0.7496 H       
  31 H31            2.3712     1.3878     1.2077 H       
  32 H32            2.5449     0.2916    -0.1893 H       
  33 H33            5.1481     1.8185     0.0752 H       
  34 H34            4.7997     5.1409    -2.5745 H       
  35 H35            2.3589     4.8339    -2.6373 H       
  36 H36            6.9366     4.2569    -2.0778 H       
  37 H37            6.4307     5.3652     0.1295 H       
  38 H38            6.7893     3.8203     0.9375 H       
  39 H39            8.7153     5.2276     0.8131 H       
  40 H40            7.3984     2.1836    -3.3035 H       
  41 H41            7.4218     0.6472    -2.4051 H       
  42 H42            5.9006     1.5556    -2.5751 H       
  43 H43            8.9299     2.7749     0.0187 H       
  44 H44            9.2161     1.5636    -1.2537 H       
  45 H45            9.1104     3.2896    -1.6757 H       
  46 H46           -4.6408     1.9968     0.9326 H       
  47 H47           -0.9740     1.6516    -2.3652 H       
  48 H48           -4.3030     2.8341    -3.6020 H       
  49 H49           -1.2975     3.3424    -3.7604 H       
  50 H50           -2.5113     3.9242    -4.9250 H       
  51 H51           -2.5249     4.5261    -3.2499 H       
  52 H52           -1.9626     0.9835    -4.2455 H       
  53 H53           -3.6638     0.4866    -4.0807 H       
  54 H54           -3.1764     1.5652    -5.4101 H       
  55 H55           -5.3996     3.6362    -1.4524 H       
  56 H56           -2.0752     1.8906     2.4728 H       
@<TRIPOS>BOND
   1    1    2 2
   2    1    4 am
   3    1   18 1
   4    3    4 1
   5    3   11 1
   6    3   29 1
   7    3   30 1
   8    4    5 1
   9    5    6 1
  10    5   31 1
  11    5   32 1
  12    6    7 ar
  13    6   11 ar
  14    7    8 ar
  15    7   33 1
  16    8    9 ar
  17    8   12 1
  18    9   10 ar
  19    9   34 1
  20   10   11 ar
  21   10   35 1
  22   12   13 1
  23   12   15 1
  24   12   36 1
  25   13   14 1
  26   13   37 1
  27   13   38 1
  28   14   39 1
  29   15   16 1
  30   15   17 1
  31   16   40 1
  32   16   41 1
  33   16   42 1
  34   17   43 1
  35   17   44 1
  36   17   45 1
  37   18   19 ar
  38   18   23 ar
  39   19   20 ar
  40   19   28 1
  41   20   21 ar
  42   20   46 1
  43   21   22 ar
  44   21   27 1
  45   22   23 ar
  46   22   24 1
  47   23   47 1
  48   24   25 1
  49   24   26 1
  50   24   48 1
  51   25   49 1
  52   25   50 1
  53   25   51 1
  54   26   52 1
  55   26   53 1
  56   26   54 1
  57   27   55 1
  58   28   56 1

#	End of record

