#	Name: ASD05143331
#	Creating user name:	WinNT
#	Creation time:	15. 06. 2019 20:57

#	Modifying user name:	WinNT
#	Modification time:	15. 06. 2019 20:57

#	Program:	/corina/corina34_cracker 3.40 0067  02.08.2006

@<TRIPOS>MOLECULE
ASD05143331
  49   51    0    0    0
SMALL
NO_CHARGES


@<TRIPOS>ATOM
   1 C1            -0.1085     1.2870     1.1127 C.2     
   2 N2            -0.0918    -0.0311     1.1414 N.2     
   3 S3            -1.5878    -0.5243     0.5043 S.3     
   4 C4            -2.1615     1.0765     0.2308 C.2     
   5 N5            -1.1948     1.8677     0.6409 N.2     
   6 N6            -3.3815     1.4503    -0.3022 N.pl3   
   7 C7            -3.7658     2.7946    -0.2936 C.ar    
   8 C8            -5.1127     3.1335    -0.3179 C.ar    
   9 C9            -5.4893     4.4621    -0.3089 C.ar    
  10 C10            0.9229    -0.8370     1.5921 C.ar    
  11 C11            2.2273    -0.6412     1.1391 C.ar    
  12 C12            0.6550    -1.8569     2.5138 C.ar    
  13 C13            1.6852    -2.6647     2.9631 C.ar    
  14 C14            2.9744    -2.4647     2.5030 C.ar    
  15 C15            3.2441    -1.4551     1.5965 C.ar    
  16 C16            1.0427     2.0829     1.5962 C.ar    
  17 C17            1.5339     3.1461     0.8299 C.ar    
  18 C18            1.6390     1.7805     2.8193 C.ar    
  19 C19            2.7114     2.5259     3.2653 C.ar    
  20 C20            3.1977     3.5731     2.5028 C.ar    
  21 C21            2.6109     3.8853     1.2906 C.ar    
  22 O22           -0.6118    -2.0524     2.9657 O.3     
  23 C23           -0.8094    -3.1115     3.9046 C.3     
  24 O24            0.9568     3.4518    -0.3611 O.3     
  25 C25            1.6077     4.4395    -1.1629 C.3     
  26 C26           -4.5265     5.4553    -0.2757 C.ar    
  27 C27           -3.1841     5.1207    -0.2514 C.ar    
  28 C28           -2.8016     3.7938    -0.2549 C.ar    
  29 Br29          -5.0462     7.2734    -0.2640 Br      
  30 H30           -3.9707     0.7799    -0.6820 H       
  31 H31           -5.8646     2.3587    -0.3442 H       
  32 H32           -6.5363     4.7262    -0.3282 H       
  33 H33            2.4415     0.1458     0.4312 H       
  34 H34            1.4824    -3.4519     3.6741 H       
  35 H35            3.7751    -3.0972     2.8566 H       
  36 H36            4.2533    -1.3059     1.2420 H       
  37 H37            1.2619     0.9641     3.4174 H       
  38 H38            3.1726     2.2912     4.2133 H       
  39 H39            4.0373     4.1520     2.8583 H       
  40 H40            2.9953     4.7039     0.7002 H       
  41 H41           -0.2066    -2.9260     4.7936 H       
  42 H42           -1.8622    -3.1586     4.1828 H       
  43 H43           -0.5101    -4.0575     3.4535 H       
  44 H44            1.0875     4.5342    -2.1161 H       
  45 H45            1.5915     5.3975    -0.6434 H       
  46 H46            2.6405     4.1401    -1.3408 H       
  47 H47           -2.4347     5.8981    -0.2254 H       
  48 H48           -1.7537     3.5332    -0.2356 H       
  49 Br49           9.2533    12.2734     9.7936 Br      
@<TRIPOS>BOND
   1    1    2 2
   2    1   16 1
   3    1    5 1
   4    2    3 1
   5    2   10 1
   6    3    4 1
   7    4    5 2
   8    4    6 1
   9    6    7 1
  10    6   30 1
  11    7    8 ar
  12    7   28 ar
  13    8    9 ar
  14    8   31 1
  15    9   26 ar
  16    9   32 1
  17   10   11 ar
  18   10   12 ar
  19   11   15 ar
  20   11   33 1
  21   12   13 ar
  22   12   22 1
  23   13   14 ar
  24   13   34 1
  25   14   15 ar
  26   14   35 1
  27   15   36 1
  28   16   17 ar
  29   16   18 ar
  30   17   24 1
  31   17   21 ar
  32   18   19 ar
  33   18   37 1
  34   19   20 ar
  35   19   38 1
  36   20   21 ar
  37   20   39 1
  38   21   40 1
  39   22   23 1
  40   23   41 1
  41   23   42 1
  42   23   43 1
  43   24   25 1
  44   25   44 1
  45   25   45 1
  46   25   46 1
  47   26   27 ar
  48   26   29 1
  49   27   28 ar
  50   27   47 1
  51   28   48 1

#	End of record

