#	Name: ASD03080224
#	Creating user name:	WinNT
#	Creation time:	15. 06. 2019 20:26

#	Modifying user name:	WinNT
#	Modification time:	15. 06. 2019 20:26

#	Program:	/corina/corina34_cracker 3.40 0067  02.08.2006

@<TRIPOS>MOLECULE
ASD03080224
  28   30    0    0    0
SMALL
NO_CHARGES


@<TRIPOS>ATOM
   1 C1            -0.0157     1.3097     0.0092 C.2     
   2 C2             0.0021    -0.0041     0.0020 C.2     
   3 C3            -1.2515    -0.8280     0.0106 C.3     
   4 C4            -2.4195    -0.0173     0.4889 C.2     
   5 N5            -2.4118     1.3192     0.4926 N.am    
   6 C6            -1.2821     2.1095     0.0318 C.3     
   7 C7             1.2744     2.0322     0.0008 C.2     
   8 N8             2.5043     1.4741    -0.0139 N.2     
   9 C9             3.3509     2.4860    -0.0166 C.2     
  10 O10            2.6167     3.6093    -0.0035 O.3     
  11 N11            1.4361     3.3322     0.0005 N.2     
  12 C12            4.8267     2.3991    -0.0307 C.ar    
  13 C13            5.4641     1.1580    -0.0430 C.ar    
  14 N14            6.7787     1.0804    -0.0560 N.ar    
  15 C15            7.5402     2.1576    -0.0580 C.ar    
  16 C16            6.9850     3.4247    -0.0459 C.ar    
  17 C17            5.6081     3.5607    -0.0378 C.ar    
  18 O18           -3.4094    -0.5963     0.8835 O.2     
  19 H19            0.9560    -0.5103    -0.0110 H       
  20 H20           -1.4526    -1.1854    -0.9993 H       
  21 H21           -1.1138    -1.6834     0.6721 H       
  22 H22           -3.1978     1.7848     0.8187 H       
  23 H23           -1.1552     2.9672     0.6923 H       
  24 H24           -1.4863     2.4669    -0.9775 H       
  25 H25            4.8743     0.2533    -0.0414 H       
  26 H26            8.6146     2.0485    -0.0689 H       
  27 H27            7.6196     4.2986    -0.0469 H       
  28 H28            5.1480     4.5378    -0.0287 H       
@<TRIPOS>BOND
   1    1    2 2
   2    1    7 1
   3    1    6 1
   4    2    3 1
   5    2   19 1
   6    3    4 1
   7    3   20 1
   8    3   21 1
   9    4    5 am
  10    4   18 2
  11    5    6 1
  12    5   22 1
  13    6   23 1
  14    6   24 1
  15    7    8 1
  16    7   11 2
  17    8    9 2
  18    9   10 1
  19    9   12 1
  20   10   11 1
  21   12   13 ar
  22   12   17 ar
  23   13   14 ar
  24   13   25 1
  25   14   15 ar
  26   15   16 ar
  27   15   26 1
  28   16   17 ar
  29   16   27 1
  30   17   28 1

#	End of record

