#	Name: ASD01410345
#	Creating user name:	WinNT
#	Creation time:	15. 06. 2019 19:17

#	Modifying user name:	WinNT
#	Modification time:	15. 06. 2019 19:17

#	Program:	/corina/corina34_cracker 3.40 0067  02.08.2006

@<TRIPOS>MOLECULE
ASD01410345
  57   60    0    0    0
SMALL
NO_CHARGES


@<TRIPOS>ATOM
   1 N1            -0.0166     1.3710     0.0096 N.pl3   
   2 C2             0.0021    -0.0041     0.0020 C.2     
   3 C3            -1.2724    -0.4705     0.0117 C.2     
   4 C4            -2.1420     0.6464     0.0260 C.ar    
   5 C5            -1.3279     1.7973     0.0304 C.ar    
   6 C6            -3.5384     0.7766     0.0400 C.ar    
   7 C7            -4.1072     2.0129     0.0520 C.ar    
   8 C8            -3.3052     3.1642     0.0505 C.ar    
   9 C9            -1.9161     3.0529     0.0434 C.ar    
  10 C10           -2.5094    -2.2178     1.2630 C.3     
  11 C11           -2.9310    -3.6886     1.2587 C.3     
  12 C12           -3.7770    -3.9729     0.0159 C.3     
  13 C13           -2.9552    -3.6743    -1.2397 C.3     
  14 C14           -2.5336    -2.2035    -1.2353 C.3     
  15 C15           -1.6877    -1.9192     0.0074 C.3     
  16 C16            1.1628     2.2400     0.0030 C.3     
  17 C17            1.5536     2.5456    -1.4200 C.2     
  18 O18            0.9104     2.0830    -2.3382 O.2     
  19 C19            2.9980     3.6301    -3.0556 C.3     
  20 N20            2.6180     3.3330    -1.6722 N.am    
  21 C21            3.3951     3.8917    -0.5631 C.3     
  22 C22            3.4459    -2.4123    -0.0312 C.ar    
  23 C23            2.2365    -2.8584     0.4698 C.ar    
  24 N24            1.1740    -2.0800     0.4662 N.ar    
  25 C25            1.2195    -0.8427    -0.0146 C.ar    
  26 C26            2.4075    -0.3284    -0.5356 C.ar    
  27 C27            3.5382    -1.1256    -0.5440 C.ar    
  28 C28           -3.9348     4.4975     0.0636 C.2     
  29 O29           -3.2428     5.4962     0.0624 O.2     
  30 O30           -5.2778     4.6083     0.0770 O.3     
  31 H31           -4.1627    -0.1047     0.0409 H       
  32 H32           -5.1829     2.1084     0.0624 H       
  33 H33           -1.3007     3.9404     0.0423 H       
  34 H34           -3.3971    -1.5854     1.2752 H       
  35 H35           -1.9068    -2.0152     2.1483 H       
  36 H36           -2.0434    -4.3210     1.2465 H       
  37 H37           -3.5165    -3.9013     2.1531 H       
  38 H38           -4.0773    -5.0207     0.0128 H       
  39 H39           -4.6646    -3.3405     0.0281 H       
  40 H40           -2.0675    -4.3067    -1.2519 H       
  41 H41           -3.5579    -3.8769    -2.1250 H       
  42 H42           -1.9481    -1.9908    -2.1298 H       
  43 H43           -3.4213    -1.5711    -1.2231 H       
  44 H44           -0.8000    -2.5516    -0.0048 H       
  45 H45            0.9323     3.1692     0.5240 H       
  46 H46            1.9881     1.7363     0.5063 H       
  47 H47            3.8755     4.2766    -3.0605 H       
  48 H48            3.2285     2.7008    -3.5766 H       
  49 H49            2.1727     4.1338    -3.5588 H       
  50 H50            2.9782     4.8576    -0.2777 H       
  51 H51            3.3535     3.2123     0.2882 H       
  52 H52            4.4316     4.0210    -0.8745 H       
  53 H53            4.3118    -3.0576    -0.0196 H       
  54 H54            2.1622    -3.8590     0.8693 H       
  55 H55            2.4437     0.6776    -0.9270 H       
  56 H56            4.4719    -0.7551    -0.9404 H       
  57 H57           -5.6444     5.5031     0.0853 H       
@<TRIPOS>BOND
   1    1    2 1
   2    1   16 1
   3    1    5 1
   4    2    3 2
   5    2   25 1
   6    3    4 1
   7    3   15 1
   8    4    5 ar
   9    4    6 ar
  10    5    9 ar
  11    6    7 ar
  12    6   31 1
  13    7    8 ar
  14    7   32 1
  15    8    9 ar
  16    8   28 1
  17    9   33 1
  18   10   11 1
  19   10   15 1
  20   10   34 1
  21   10   35 1
  22   11   12 1
  23   11   36 1
  24   11   37 1
  25   12   13 1
  26   12   38 1
  27   12   39 1
  28   13   14 1
  29   13   40 1
  30   13   41 1
  31   14   15 1
  32   14   42 1
  33   14   43 1
  34   15   44 1
  35   16   17 1
  36   16   45 1
  37   16   46 1
  38   17   18 2
  39   17   20 am
  40   19   20 1
  41   19   47 1
  42   19   48 1
  43   19   49 1
  44   20   21 1
  45   21   50 1
  46   21   51 1
  47   21   52 1
  48   22   23 ar
  49   22   27 ar
  50   22   53 1
  51   23   24 ar
  52   23   54 1
  53   24   25 ar
  54   25   26 ar
  55   26   27 ar
  56   26   55 1
  57   27   56 1
  58   28   29 2
  59   28   30 1
  60   30   57 1

#	End of record

