#	Name: ASD03092765
#	Creating user name:	WinNT
#	Creation time:	15. 06. 2019 20:33

#	Modifying user name:	WinNT
#	Modification time:	15. 06. 2019 20:33

#	Program:	/corina/corina34_cracker 3.40 0067  02.08.2006

@<TRIPOS>MOLECULE
ASD03092765
  41   44    0    0    0
SMALL
NO_CHARGES


@<TRIPOS>ATOM
   1 H1            -0.0160    -0.0693     0.0824 H       
   2 C2            -0.0155     1.0197     0.0357 C.3     
   3 C3            -0.5343     1.4614    -1.3483 C.3     
   4 C4             0.7110     1.4846    -2.2097 C.2     
   5 C5             1.7897     1.5068    -1.4712 C.2     
   6 C6             1.4281     1.5145     0.0058 C.3     
   7 H7             2.0742     0.8326     0.5587 H       
   8 C8             1.5801     2.9228     0.5082 C.ar    
   9 C9             2.7705     3.5876     0.2527 C.ar    
  10 C10            2.9529     4.8868     0.6830 C.ar    
  11 C11            1.9466     5.5372     1.3730 C.ar    
  12 C12            0.7606     4.8824     1.6356 C.ar    
  13 C13            0.5776     3.5702     1.2082 C.ar    
  14 N14           -0.6136     2.9207     1.5128 N.pl3   
  15 C15           -0.8730     1.5574     1.1421 C.3     
  16 H16           -0.7231     0.9386     2.0268 H       
  17 C17           -2.3167     1.4432     0.7254 C.ar    
  18 C18           -3.0470     0.3198     1.0658 C.ar    
  19 C19           -4.3710     0.2140     0.6842 C.ar    
  20 C20           -4.9662     1.2337    -0.0390 C.ar    
  21 F21           -6.2606     1.1315    -0.4122 F       
  22 C22           -4.2339     2.3585    -0.3790 C.ar    
  23 C23           -2.9114     2.4643     0.0079 C.ar    
  24 S24            4.4713     5.7175     0.3527 S.o2    
  25 N25            4.3036     6.4840    -1.1056 N.am    
  26 O26            4.5906     6.7400     1.3321 O.2     
  27 O27            5.4498     4.7046     0.1634 O.2     
  28 H28           -1.2543     0.7403    -1.7353 H       
  29 H29           -0.9789     2.4550    -1.2913 H       
  30 H30            0.7084     1.4826    -3.2897 H       
  31 H31            2.7984     1.5178    -1.8569 H       
  32 H32            3.5602     3.0854    -0.2863 H       
  33 H33            2.0886     6.5548     1.7059 H       
  34 H34           -0.0270     5.3887     2.1739 H       
  35 H35           -1.3037     3.4126     1.9849 H       
  36 H36           -2.5826    -0.4754     1.6299 H       
  37 H37           -4.9412    -0.6640     0.9496 H       
  38 H38           -4.6970     3.1544    -0.9433 H       
  39 H39           -2.3411     3.3434    -0.2536 H       
  40 H40            3.4702     6.4144    -1.5971 H       
  41 H41            5.0387     7.0026    -1.4684 H       
@<TRIPOS>BOND
   1    1    2 1
   2    2    6 1
   3    2   15 1
   4    2    3 1
   5    3    4 1
   6    3   28 1
   7    3   29 1
   8    4    5 2
   9    4   30 1
  10    5    6 1
  11    5   31 1
  12    6    7 1
  13    6    8 1
  14    8   13 ar
  15    8    9 ar
  16    9   10 ar
  17    9   32 1
  18   10   11 ar
  19   10   24 1
  20   11   12 ar
  21   11   33 1
  22   12   13 ar
  23   12   34 1
  24   13   14 1
  25   14   15 1
  26   14   35 1
  27   15   16 1
  28   15   17 1
  29   17   23 ar
  30   17   18 ar
  31   18   19 ar
  32   18   36 1
  33   19   20 ar
  34   19   37 1
  35   20   21 1
  36   20   22 ar
  37   22   23 ar
  38   22   38 1
  39   23   39 1
  40   24   25 am
  41   24   26 2
  42   24   27 2
  43   25   40 1
  44   25   41 1

#	End of record

