#	Name: ASD03731579
#	Creating user name:	WinNT
#	Creation time:	15. 06. 2019 20:46

#	Modifying user name:	WinNT
#	Modification time:	15. 06. 2019 20:46

#	Program:	/corina/corina34_cracker 3.40 0067  02.08.2006

@<TRIPOS>MOLECULE
ASD03731579
  41   42    0    0    0
SMALL
NO_CHARGES


@<TRIPOS>ATOM
   1 C1            -0.7938     1.3866     0.4293 C.2     
   2 C2            -0.5700    -0.0643     0.3103 C.ar    
   3 C3             0.5832    -0.5495    -0.3256 C.ar    
   4 C4             0.7858    -1.9142    -0.4332 C.ar    
   5 C5            -0.1495    -2.7981     0.0860 C.ar    
   6 C6            -1.2937    -2.3184     0.7164 C.ar    
   7 C7            -1.5029    -0.9638     0.8354 C.ar    
   8 O8             0.0216     2.1669    -0.0240 O.2     
   9 N9            -1.9049     1.8496     1.0356 N.am    
  10 S10           -2.1566     3.4809     1.1694 S.o2    
  11 O11           -3.3874     3.5892     1.8712 O.2     
  12 O12           -0.9482     3.9772     1.7286 O.2     
  13 C13           -2.3473     4.0514    -0.5420 C.3     
  14 O14            1.4959     0.3163    -0.8333 O.3     
  15 C15            2.6450    -0.2499    -1.4666 C.3     
  16 O16            0.0522    -4.1356    -0.0217 O.3     
  17 C17           -0.4590    -4.7728    -1.1089 C.ar    
  18 C18           -0.3781    -6.1592    -1.2067 C.ar    
  19 C19           -0.9006    -6.8041    -2.3157 C.ar    
  20 C20           -1.5014    -6.0702    -3.3233 C.ar    
  21 C21           -1.5811    -4.6926    -3.2259 C.ar    
  22 C22           -1.0664    -4.0441    -2.1186 C.ar    
  23 O23            0.2131    -6.8788    -0.2158 O.3     
  24 C24            0.2601    -8.2971    -0.3836 C.3     
  25 Cl25          -2.1558    -6.8797    -4.7126 Cl      
  26 H26            1.6719    -2.2915    -0.9218 H       
  27 H27           -2.0179    -3.0119     1.1177 H       
  28 H28           -2.3897    -0.5954     1.3296 H       
  29 H29           -2.5572     1.2273     1.3935 H       
  30 H30           -3.1963     3.5450    -1.0013 H       
  31 H31           -2.5189     5.1277    -0.5492 H       
  32 H32           -1.4414     3.8241    -1.1039 H       
  33 H33            3.2920     0.5497    -1.8273 H       
  34 H34            3.1903    -0.8628    -0.7490 H       
  35 H35            2.3290    -0.8685    -2.3067 H       
  36 H36           -0.8388    -7.8794    -2.3941 H       
  37 H37           -2.0504    -4.1229    -4.0143 H       
  38 H38           -1.1339    -2.9688    -2.0428 H       
  39 H39            0.8145    -8.5375    -1.2907 H       
  40 H40            0.7562    -8.7484     0.4757 H       
  41 H41           -0.7545    -8.6874    -0.4636 H       
@<TRIPOS>BOND
   1    1    2 1
   2    1    8 2
   3    1    9 am
   4    2    3 ar
   5    2    7 ar
   6    3    4 ar
   7    3   14 1
   8    4    5 ar
   9    4   26 1
  10    5    6 ar
  11    5   16 1
  12    6    7 ar
  13    6   27 1
  14    7   28 1
  15    9   10 am
  16    9   29 1
  17   10   11 2
  18   10   12 2
  19   10   13 1
  20   13   30 1
  21   13   31 1
  22   13   32 1
  23   14   15 1
  24   15   33 1
  25   15   34 1
  26   15   35 1
  27   16   17 1
  28   17   18 ar
  29   17   22 ar
  30   18   19 ar
  31   18   23 1
  32   19   20 ar
  33   19   36 1
  34   20   21 ar
  35   20   25 1
  36   21   22 ar
  37   21   37 1
  38   22   38 1
  39   23   24 1
  40   24   39 1
  41   24   40 1
  42   24   41 1

#	End of record

