#	Name: ASD04590125
#	Creating user name:	WinNT
#	Creation time:	15. 06. 2019 20:50

#	Modifying user name:	WinNT
#	Modification time:	15. 06. 2019 20:50

#	Program:	/corina/corina34_cracker 3.40 0067  02.08.2006

@<TRIPOS>MOLECULE
ASD04590125
  60   63    0    0    0
SMALL
NO_CHARGES


@<TRIPOS>ATOM
   1 N1            -0.0153     1.2802     0.0091 N.pl3   
   2 N2             0.0021    -0.0041     0.0020 N.2     
   3 C3             1.2455    -0.4440    -0.0122 C.2     
   4 C4             2.0903     0.6961    -0.0142 C.2     
   5 C5             1.2523     1.7668    -0.0004 C.2     
   6 C6             1.6764    -1.8547    -0.0235 C.2     
   7 N7             0.7570    -2.8402    -0.0200 N.am    
   8 O8             2.8611    -2.1285    -0.0359 O.2     
   9 N9             3.4928     0.7146    -0.0268 N.am    
  10 C10            4.1513     1.8906    -0.0268 C.2     
  11 C11            6.3129     3.1259    -0.0402 C.ar    
  12 C12            5.6295     1.9102    -0.0401 C.ar    
  13 C13            1.1850    -4.2413    -0.0312 C.3     
  14 C14            0.0893    -5.1141     0.5841 C.3     
  15 C15            0.5363    -6.5773     0.5724 C.3     
  16 C16            0.7922    -7.0209    -0.8693 C.3     
  17 C17            1.8878    -6.1481    -1.4846 C.3     
  18 C18            1.4409    -4.6849    -1.4730 C.3     
  19 C19            7.6997     3.1376    -0.0523 C.ar    
  20 C20            8.4049     1.9405    -0.0642 C.ar    
  21 C21            7.7274     0.7330    -0.0641 C.ar    
  22 C22            6.3454     0.7118    -0.0521 C.ar    
  23 O23            3.5296     2.9353    -0.0160 O.2     
  24 F24            8.4189    -0.4275    -0.0762 F       
  25 N25            8.3878     4.3534    -0.0529 N.3     
  26 C26            9.8411     4.1360    -0.0665 C.3     
  27 C27           10.5556     5.4871    -0.1471 C.3     
  28 N28           10.1607     6.3163     1.0002 N.3     
  29 C29            8.7074     6.5337     1.0138 C.3     
  30 C30            7.9929     5.1826     1.0944 C.3     
  31 C31           10.8843     7.5948     0.9996 C.3     
  32 H32           -0.8184     1.8242     0.0160 H       
  33 H33            1.5405     2.8076     0.0017 H       
  34 H34           -0.1880    -2.6218    -0.0102 H       
  35 H35            3.9889    -0.1189    -0.0354 H       
  36 H36            5.7636     4.0557    -0.0355 H       
  37 H37            2.1016    -4.3458     0.5492 H       
  38 H38           -0.0930    -4.7981     1.6112 H       
  39 H39           -0.8273    -5.0096     0.0036 H       
  40 H40            1.4529    -6.6819     1.1529 H       
  41 H41           -0.2443    -7.1992     1.0108 H       
  42 H42            1.1106    -8.0634    -0.8777 H       
  43 H43           -0.1244    -6.9164    -1.4498 H       
  44 H44            2.8045    -6.2526    -0.9042 H       
  45 H45            2.0702    -6.4641    -2.5118 H       
  46 H46            0.5242    -4.5803    -2.0534 H       
  47 H47            2.2214    -4.0630    -1.9113 H       
  48 H48            9.4848     1.9519    -0.0735 H       
  49 H49            5.8196    -0.2316    -0.0521 H       
  50 H50           10.1403     3.6203     0.8460 H       
  51 H51           10.1101     3.5303    -0.9318 H       
  52 H52           11.6340     5.3299    -0.1281 H       
  53 H53           10.2774     5.9910    -1.0727 H       
  54 H54            8.4384     7.1394     1.8791 H       
  55 H55            8.4083     7.0494     0.1013 H       
  56 H56            6.9145     5.3398     1.0754 H       
  57 H57            8.2711     4.6787     2.0201 H       
  58 H58           10.6603     8.1385     0.0818 H       
  59 H59           10.5732     8.1887     1.8589 H       
  60 H60           11.9562     7.4056     1.0575 H       
@<TRIPOS>BOND
   1    1    2 1
   2    1    5 1
   3    1   32 1
   4    2    3 2
   5    3    4 1
   6    3    6 1
   7    4    5 2
   8    4    9 1
   9    5   33 1
  10    6    7 am
  11    6    8 2
  12    7   13 1
  13    7   34 1
  14    9   10 am
  15    9   35 1
  16   10   23 2
  17   10   12 1
  18   11   12 ar
  19   11   19 ar
  20   11   36 1
  21   12   22 ar
  22   13   14 1
  23   13   18 1
  24   13   37 1
  25   14   15 1
  26   14   38 1
  27   14   39 1
  28   15   16 1
  29   15   40 1
  30   15   41 1
  31   16   17 1
  32   16   42 1
  33   16   43 1
  34   17   18 1
  35   17   44 1
  36   17   45 1
  37   18   46 1
  38   18   47 1
  39   19   20 ar
  40   19   25 1
  41   20   21 ar
  42   20   48 1
  43   21   22 ar
  44   21   24 1
  45   22   49 1
  46   25   26 1
  47   25   30 1
  48   26   27 1
  49   26   50 1
  50   26   51 1
  51   27   28 1
  52   27   52 1
  53   27   53 1
  54   28   29 1
  55   28   31 1
  56   29   30 1
  57   29   54 1
  58   29   55 1
  59   30   56 1
  60   30   57 1
  61   31   58 1
  62   31   59 1
  63   31   60 1

#	End of record

