#	Name: ASD03090690
#	Creating user name:	WinNT
#	Creation time:	15. 06. 2019 20:29

#	Modifying user name:	WinNT
#	Modification time:	15. 06. 2019 20:29

#	Program:	/corina/corina34_cracker 3.40 0067  02.08.2006

@<TRIPOS>MOLECULE
ASD03090690
  33   34    0    0    0
SMALL
NO_CHARGES


@<TRIPOS>ATOM
   1 N1            -0.0162     1.3436     0.0094 N.am    
   2 C2            -0.0555     0.1299     0.5943 C.2     
   3 O3             0.9653    -0.3703     1.0258 O.2     
   4 N4            -1.2262    -0.5292     0.7008 N.am    
   5 S5            -2.6686    -2.7430     1.5158 S.3     
   6 C6            -1.2668    -1.7814     1.3042 C.2     
   7 N7            -0.2479    -2.4161     1.8005 N.2     
   8 N8            -0.4574    -3.5499     2.3148 N.2     
   9 C9            -1.6800    -3.9766     2.2985 C.2     
  10 C10           -2.1701    -5.2911     2.8489 C.3     
  11 F11           -1.1165    -5.9490     3.4926 F       
  12 F12           -3.2025    -5.0578     3.7637 F       
  13 F13           -2.6461    -6.0869     1.8014 F       
  14 C14            1.1682     3.4616    -0.1242 C.ar    
  15 C15            1.1851     2.0694    -0.0214 C.ar    
  16 C16            2.4065     1.4122     0.0505 C.ar    
  17 C17            3.5685     2.1690     0.0171 C.ar    
  18 C18            3.4780     3.5487    -0.0862 C.ar    
  19 N19            2.3000     4.1487    -0.1530 N.ar    
  20 S20           -0.3722     4.3113    -0.2237 S.3     
  21 C21            0.1282     6.0510    -0.3396 C.3     
  22 O22            4.6123     4.2939    -0.1193 O.3     
  23 C23            4.4551     5.7102    -0.2265 C.3     
  24 H24           -0.8170     1.7138    -0.3937 H       
  25 H25           -2.0406    -0.1302     0.3565 H       
  26 H26            2.4506     0.3361     0.1309 H       
  27 H27            4.5341     1.6884     0.0714 H       
  28 H28           -0.7590     6.6805    -0.4073 H       
  29 H29            0.7009     6.3242     0.5467 H       
  30 H30            0.7435     6.1937    -1.2280 H       
  31 H31            3.9216     5.9479    -1.1468 H       
  32 H32            3.8875     6.0785     0.6280 H       
  33 H33            5.4364     6.1844    -0.2426 H       
@<TRIPOS>BOND
   1    1    2 am
   2    1   15 1
   3    1   24 1
   4    2    3 2
   5    2    4 am
   6    4    6 1
   7    4   25 1
   8    5    6 1
   9    5    9 1
  10    6    7 2
  11    7    8 1
  12    8    9 2
  13    9   10 1
  14   10   11 1
  15   10   12 1
  16   10   13 1
  17   14   15 ar
  18   14   19 ar
  19   14   20 1
  20   15   16 ar
  21   16   17 ar
  22   16   26 1
  23   17   18 ar
  24   17   27 1
  25   18   19 ar
  26   18   22 1
  27   20   21 1
  28   21   28 1
  29   21   29 1
  30   21   30 1
  31   22   23 1
  32   23   31 1
  33   23   32 1
  34   23   33 1

#	End of record

