#	Name: ASD01882432
#	Creating user name:	WinNT
#	Creation time:	15. 06. 2019 19:44

#	Modifying user name:	WinNT
#	Modification time:	15. 06. 2019 19:44

#	Program:	/corina/corina34_cracker 3.40 0067  02.08.2006

@<TRIPOS>MOLECULE
ASD01882432
  58   61    0    0    0
SMALL
NO_CHARGES


@<TRIPOS>ATOM
   1 N1            -0.0158     1.3187    -0.0366 N.ar    
   2 C2             0.0021    -0.0041     0.0020 C.ar    
   3 C3             1.2041    -0.7036     0.0355 C.ar    
   4 C4             2.3966    -0.0007     0.0277 C.ar    
   5 C5             1.1038     2.0268    -0.0454 C.ar    
   6 N6             1.3604     3.3914    -0.0828 N.am    
   7 C7             2.3438     1.3866    -0.0137 C.ar    
   8 N8             3.3170     2.3848    -0.0326 N.am    
   9 C9             2.6933     3.5777    -0.0744 C.2     
  10 N10           -1.1999    -0.7059     0.0097 N.3     
  11 C11            0.3493     4.4507    -0.1249 C.3     
  12 O12            3.2501     4.6594    -0.1004 O.2     
  13 C13            4.7664     2.1728    -0.0107 C.3     
  14 C14            5.2865     2.0566    -1.4449 C.3     
  15 C15            4.9709     3.3447    -2.2078 C.3     
  16 C16            6.8002     1.8352    -1.4221 C.3     
  17 C17            4.6084     0.8736    -2.1390 C.3     
  18 C18           -3.4686    -0.8741     0.9162 C.3     
  19 C19           -4.0101    -1.1534    -0.4881 C.3     
  20 C20           -2.9205    -1.8384    -1.3181 C.3     
  21 C21           -1.6781    -0.9459    -1.3581 C.3     
  22 C22           -2.2128    -0.0059     0.8093 C.3     
  23 C23           -3.9813     0.1412     3.1394 C.3     
  24 C24           -4.5278    -0.1368     1.7374 C.3     
  25 C25           -1.6642     0.2687     2.2106 C.3     
  26 C26           -2.7224     1.0042     3.0357 C.3     
  27 H27            1.2068    -1.7832     0.0676 H       
  28 H28            3.3443    -0.5181     0.0534 H       
  29 H29            0.0875     4.7436     0.8918 H       
  30 H30            0.7480     5.3125    -0.6601 H       
  31 H31           -0.5399     4.0840    -0.6378 H       
  32 H32            5.2494     3.0155     0.4838 H       
  33 H33            4.9912     1.2551     0.5327 H       
  34 H34            5.4539     4.1875    -1.7133 H       
  35 H35            5.3414     3.2620    -3.2296 H       
  36 H36            3.8925     3.5025    -2.2240 H       
  37 H37            7.0250     0.9175    -0.8787 H       
  38 H38            7.1707     1.7524    -2.4439 H       
  39 H39            7.2833     2.6780    -0.9276 H       
  40 H40            3.5300     1.0314    -2.1553 H       
  41 H41            4.9790     0.7909    -3.1608 H       
  42 H42            4.8333    -0.0441    -1.5956 H       
  43 H43           -3.2190    -1.8164     1.4039 H       
  44 H44           -4.8806    -1.8058    -0.4200 H       
  45 H45           -4.2935    -0.2141    -0.9629 H       
  46 H46           -2.6658    -2.7962    -0.8645 H       
  47 H47           -3.2843    -2.0011    -2.3326 H       
  48 H48           -1.9295     0.0055    -1.8269 H       
  49 H49           -0.8955    -1.4388    -1.9349 H       
  50 H50           -2.4650     0.9393     0.3285 H       
  51 H51           -4.7350     0.6672     3.7253 H       
  52 H52           -3.7357    -0.8022     3.6271 H       
  53 H53           -4.7745     0.8063     1.2497 H       
  54 H54           -5.4239    -0.7529     1.8120 H       
  55 H55           -1.4167    -0.6756     2.6956 H       
  56 H56           -0.7683     0.8850     2.1360 H       
  57 H57           -2.9687     1.9490     2.5511 H       
  58 H58           -2.3328     1.1996     4.0348 H       
@<TRIPOS>BOND
   1    1    2 ar
   2    1    5 ar
   3    2    3 ar
   4    2   10 1
   5    3    4 ar
   6    3   27 1
   7    4    7 ar
   8    4   28 1
   9    5    7 ar
  10    5    6 1
  11    6    9 am
  12    6   11 1
  13    7    8 1
  14    8    9 am
  15    8   13 1
  16    9   12 2
  17   10   22 1
  18   10   21 1
  19   11   29 1
  20   11   30 1
  21   11   31 1
  22   13   14 1
  23   13   32 1
  24   13   33 1
  25   14   15 1
  26   14   16 1
  27   14   17 1
  28   15   34 1
  29   15   35 1
  30   15   36 1
  31   16   37 1
  32   16   38 1
  33   16   39 1
  34   17   40 1
  35   17   41 1
  36   17   42 1
  37   18   19 1
  38   18   22 1
  39   18   24 1
  40   18   43 1
  41   19   20 1
  42   19   44 1
  43   19   45 1
  44   20   21 1
  45   20   46 1
  46   20   47 1
  47   21   48 1
  48   21   49 1
  49   22   25 1
  50   22   50 1
  51   23   24 1
  52   23   26 1
  53   23   51 1
  54   23   52 1
  55   24   53 1
  56   24   54 1
  57   25   26 1
  58   25   55 1
  59   25   56 1
  60   26   57 1
  61   26   58 1

#	End of record

