#	Name: ASD01812758
#	Creating user name:	WinNT
#	Creation time:	15. 06. 2019 19:29

#	Modifying user name:	WinNT
#	Modification time:	15. 06. 2019 19:29

#	Program:	/corina/corina34_cracker 3.40 0067  02.08.2006

@<TRIPOS>MOLECULE
ASD01812758
  44   47    0    0    0
SMALL
NO_CHARGES


@<TRIPOS>ATOM
   1 N1            -0.0158     1.3146     0.0093 N.ar    
   2 C2             0.0021    -0.0041     0.0020 C.ar    
   3 C3             1.1989    -0.7034    -0.0127 C.ar    
   4 C4             2.3830    -0.0017    -0.0202 C.ar    
   5 C5             2.3452     1.3975    -0.0128 C.ar    
   6 C6             1.0958     2.0332     0.0025 C.ar    
   7 C7             3.8374    -0.3895    -0.0358 C.3     
   8 N8             4.5957     0.8678    -0.0366 N.am    
   9 C9             3.7284     1.8956    -0.0233 C.2     
  10 C10            6.0561     0.9836    -0.0497 C.3     
  11 C11            6.5435     1.0305    -1.4749 C.ar    
  12 C12            6.4779     2.2138    -2.1904 C.ar    
  13 C13            6.9260     2.2559    -3.4999 C.ar    
  14 C14            7.4385     1.1160    -4.0913 C.ar    
  15 C15            7.5034    -0.0658    -3.3749 C.ar    
  16 C16            7.0615    -0.1066    -2.0660 C.ar    
  17 O17            1.0259     3.3855     0.0100 O.3     
  18 O18            4.0435     3.0700    -0.0207 O.2     
  19 C19           -0.2061     3.9611     0.0244 C.ar    
  20 Br20           8.0501     1.1722    -5.8798 Br      
  21 C21           -0.8241     4.2490     1.2326 C.ar    
  22 C22           -2.0815     4.8370     1.2435 C.ar    
  23 C23           -2.7171     5.1353     0.0479 C.ar    
  24 C24           -2.1001     4.8479    -1.1557 C.ar    
  25 C25           -0.8450     4.2668    -1.1708 C.ar    
  26 F26           -0.2423     3.9918    -2.3482 F       
  27 F27           -0.2034     3.9572     2.3966 F       
  28 F28            5.9765     3.3268    -1.6115 F       
  29 O29           -2.6900     5.1200     2.4264 O.3     
  30 C30           -3.9831     5.7248     2.3625 C.3     
  31 H31           -0.9309    -0.5480     0.0080 H       
  32 H32            1.2022    -1.7834    -0.0178 H       
  33 H33            4.0794    -0.9727     0.8527 H       
  34 H34            4.0627    -0.9637    -0.9345 H       
  35 H35            6.3528     1.8969     0.4660 H       
  36 H36            6.4934     0.1225     0.4558 H       
  37 H37            6.8748     3.1784    -4.0591 H       
  38 H38            7.9038    -0.9559    -3.8373 H       
  39 H39            7.1167    -1.0286    -1.5062 H       
  40 H40           -3.6955     5.5925     0.0567 H       
  41 H41           -2.5974     5.0809    -2.0856 H       
  42 H42           -3.9138     6.6756     1.8340 H       
  43 H43           -4.6678     5.0633     1.8318 H       
  44 H44           -4.3540     5.8970     3.3728 H       
@<TRIPOS>BOND
   1    1    2 ar
   2    1    6 ar
   3    2    3 ar
   4    2   31 1
   5    3    4 ar
   6    3   32 1
   7    4    7 1
   8    4    5 ar
   9    5    6 ar
  10    5    9 1
  11    6   17 1
  12    7    8 1
  13    7   33 1
  14    7   34 1
  15    8    9 am
  16    8   10 1
  17    9   18 2
  18   10   11 1
  19   10   35 1
  20   10   36 1
  21   11   12 ar
  22   11   16 ar
  23   12   13 ar
  24   12   28 1
  25   13   14 ar
  26   13   37 1
  27   14   15 ar
  28   14   20 1
  29   15   16 ar
  30   15   38 1
  31   16   39 1
  32   17   19 1
  33   19   21 ar
  34   19   25 ar
  35   21   22 ar
  36   21   27 1
  37   22   23 ar
  38   22   29 1
  39   23   24 ar
  40   23   40 1
  41   24   25 ar
  42   24   41 1
  43   25   26 1
  44   29   30 1
  45   30   42 1
  46   30   43 1
  47   30   44 1

#	End of record

