#	Name: ASD01911737
#	Creating user name:	WinNT
#	Creation time:	15. 06. 2019 19:58

#	Modifying user name:	WinNT
#	Modification time:	15. 06. 2019 19:58

#	Program:	/corina/corina34_cracker 3.40 0067  02.08.2006

@<TRIPOS>MOLECULE
ASD01911737
  38   40    0    0    0
SMALL
NO_CHARGES


@<TRIPOS>ATOM
   1 N1             0.0314     1.1540    -0.6868 N.am    
   2 C2             0.0021    -0.0041     0.0020 C.2     
   3 C3            -1.2512    -0.7546     0.1206 C.2     
   4 C4            -1.3868    -2.1141     0.0311 C.2     
   5 S5            -2.8476    -0.0663     0.4110 S.3     
   6 C6            -3.5486    -1.6816     0.3760 C.2     
   7 N7            -2.6019    -2.5629     0.1684 N.2     
   8 C8            -4.9370    -1.9849     0.5520 C.1     
   9 C9            -6.0753    -2.2336     0.6964 C.1     
  10 C10           -7.4636    -2.5369     0.8725 C.ar    
  11 C11           -7.9019    -3.8655     0.8236 C.ar    
  12 O12            1.0163    -0.4266     0.5256 O.2     
  13 C13           -1.1502     1.6136    -1.4293 C.3     
  14 C14           -1.4878     3.0402    -0.9847 C.3     
  15 C15           -0.2536     3.9289    -1.1551 C.3     
  16 C16            0.8810     3.4037    -0.2725 C.3     
  17 C17            1.2437     1.9840    -0.7044 C.3     
  18 C18           -9.2262    -4.1539     0.9915 C.ar    
  19 C19          -10.1443    -3.1225     1.2124 C.ar    
  20 C20           -9.7073    -1.7950     1.2609 C.ar    
  21 C21           -8.3825    -1.5055     1.0993 C.ar    
  22 C22          -11.5327    -3.4258     1.3884 C.1     
  23 N23          -12.6341    -3.6664     1.5280 N.1     
  24 H24           -0.5452    -2.7686    -0.1416 H       
  25 H25           -7.1930    -4.6622     0.6527 H       
  26 H26           -0.9363     1.6049    -2.4980 H       
  27 H27           -1.9932     0.9558    -1.2178 H       
  28 H28           -2.3028     3.4283    -1.5956 H       
  29 H29           -1.7892     3.0331     0.0628 H       
  30 H30            0.0620     3.9159    -2.1983 H       
  31 H31           -0.4982     4.9500    -0.8626 H       
  32 H32            1.7521     4.0506    -0.3765 H       
  33 H33            0.5573     3.3932     0.7683 H       
  34 H34            1.9814     1.5701    -0.0169 H       
  35 H35            1.6526     2.0026    -1.7146 H       
  36 H36           -9.5645    -5.1789     0.9534 H       
  37 H37          -10.4171    -0.9989     1.4312 H       
  38 H38           -8.0452    -0.4802     1.1368 H       
@<TRIPOS>BOND
   1    1    2 am
   2    1   13 1
   3    1   17 1
   4    2    3 1
   5    2   12 2
   6    3    4 2
   7    3    5 1
   8    4    7 1
   9    4   24 1
  10    5    6 1
  11    6    7 2
  12    6    8 1
  13    8    9 3
  14    9   10 1
  15   10   11 ar
  16   10   21 ar
  17   11   18 ar
  18   11   25 1
  19   13   14 1
  20   13   26 1
  21   13   27 1
  22   14   15 1
  23   14   28 1
  24   14   29 1
  25   15   16 1
  26   15   30 1
  27   15   31 1
  28   16   17 1
  29   16   32 1
  30   16   33 1
  31   17   34 1
  32   17   35 1
  33   18   19 ar
  34   18   36 1
  35   19   20 ar
  36   19   22 1
  37   20   21 ar
  38   20   37 1
  39   21   38 1
  40   22   23 3

#	End of record

