#	Name: ASD05430258
#	Creating user name:	WinNT
#	Creation time:	15. 06. 2019 21:00

#	Modifying user name:	WinNT
#	Modification time:	15. 06. 2019 21:00

#	Program:	/corina/corina34_cracker 3.40 0067  02.08.2006

@<TRIPOS>MOLECULE
ASD05430258
  77   83    0    0    0
SMALL
NO_CHARGES


@<TRIPOS>ATOM
   1 C1             0.2319     1.3849    -1.2022 C.ar    
   2 C2            -0.0658     0.5099    -0.1606 C.ar    
   3 C3             0.7835     0.4243     0.9325 C.ar    
   4 C4             1.9217     1.2061     0.9858 C.ar    
   5 C5             2.2167     2.0753    -0.0486 C.ar    
   6 C6             1.3753     2.1657    -1.1413 C.ar    
   7 C7             5.0412     1.1324     0.8420 C.3     
   8 C8             4.3887     2.4712     1.1346 C.3     
   9 C9             3.4539     2.9226     0.0156 C.3     
  10 C10            4.3900    -0.0855     1.4792 C.3     
  11 C11            4.1045     0.0376     2.9802 C.3     
  12 N12            3.3861     1.2975     3.1763 N.pl3   
  13 C13            3.6360     2.4387     2.4408 C.2     
  14 N14            3.1387     3.4553     3.0592 N.2     
  15 N15           -1.2227    -0.2831    -0.2166 N.pl3   
  16 C16           -1.2946    -1.6353    -0.0047 C.2     
  17 C17           -2.5862    -1.9858    -0.1556 C.2     
  18 N18           -3.2876    -0.8817    -0.4515 N.2     
  19 C19           -2.4829     0.1457    -0.4851 C.2     
  20 C20           -3.1464    -3.3778    -0.0161 C.3     
  21 C21            2.3343     1.6083     4.1418 C.3     
  22 O22            2.5173     3.0291     4.2600 O.3     
  23 C23            0.9671     1.2821     3.5983 C.ar    
  24 O24           -0.5941     1.4689    -2.2787 O.3     
  25 C25            2.5755     0.9113     5.4822 C.3     
  26 C26            0.3832     0.0621     3.8843 C.ar    
  27 C27           -0.9585     1.9073     2.3200 C.ar    
  28 C28            0.2955     2.2052     2.8186 C.ar    
  29 C29           -1.5419     0.6835     2.6011 C.ar    
  30 F30           -2.7678     0.3912     2.1142 F       
  31 C31           -0.2256     2.3880    -3.3090 C.3     
  32 C32           -0.8705    -0.2382     3.3864 C.ar    
  33 C33            4.1859     2.9011    -1.3270 C.3     
  34 C34            5.5167     3.5171     1.2680 C.3     
  35 C35            6.3517     3.5118    -0.0144 C.3     
  36 C36            5.4304     3.7473    -1.1876 C.2     
  37 O37            5.6844     4.5996    -2.0059 O.2     
  38 O38            4.9453     4.8084     1.4700 O.3     
  39 C39            5.7604     5.6899     2.2450 C.3     
  40 C40            3.2655    -0.7353     0.6768 C.3     
  41 O41            3.8527    -1.9674     1.1183 O.3     
  42 C42            5.1597    -1.3856     1.1605 C.3     
  43 H43            0.5553    -0.2531     1.7421 H       
  44 H44            2.5823     1.1385     1.8376 H       
  45 H45            1.6086     2.8452    -1.9477 H       
  46 H46            5.1025     0.9735    -0.2419 H       
  47 H47            6.0890     1.1756     1.1972 H       
  48 H48            3.1464     3.9599     0.2196 H       
  49 H49            3.4882    -0.8020     3.3042 H       
  50 H50            5.0408     0.0471     3.5365 H       
  51 H51           -0.4730    -2.2936     0.2364 H       
  52 H52           -2.7701     1.1648    -0.6979 H       
  53 H53           -3.4433    -3.5479     1.0188 H       
  54 H54           -4.0147    -3.4868    -0.6659 H       
  55 H55           -2.3862    -4.1055    -0.3003 H       
  56 H56            3.5294     1.2389     5.8956 H       
  57 H57            1.7728     1.1665     6.1741 H       
  58 H58            2.5961    -0.1681     5.3319 H       
  59 H59            0.9071    -0.6567     4.4969 H       
  60 H60           -1.4829     2.6285     1.7107 H       
  61 H61            0.7507     3.1597     2.5995 H       
  62 H62           -0.1783     3.3959    -2.8969 H       
  63 H63            0.7502     2.1129    -3.7093 H       
  64 H64           -0.9677     2.3561    -4.1068 H       
  65 H65           -1.3262    -1.1916     3.6095 H       
  66 H66            4.4485     1.8843    -1.6059 H       
  67 H67            3.5416     3.3299    -2.1001 H       
  68 H68            6.1417     3.2500     2.1174 H       
  69 H69            7.0978     4.3082     0.0299 H       
  70 H70            6.8560     2.5520    -0.1269 H       
  71 H71            5.9302     5.2556     3.2303 H       
  72 H72            6.7166     5.8363     1.7427 H       
  73 H73            5.2561     6.6501     2.3532 H       
  74 H74            2.2649    -0.5634     1.0744 H       
  75 H75            3.3334    -0.5813    -0.4015 H       
  76 H76            5.6764    -1.3578     0.2034 H       
  77 H77            5.7810    -1.7304     1.9857 H       
@<TRIPOS>BOND
   1    1    2 ar
   2    1    6 ar
   3    1   24 1
   4    2    3 ar
   5    2   15 1
   6    3    4 ar
   7    3   43 1
   8    4    5 ar
   9    4   44 1
  10    5    6 ar
  11    5    9 1
  12    6   45 1
  13    7    8 1
  14    7   10 1
  15    7   46 1
  16    7   47 1
  17    8    9 1
  18    8   34 1
  19    8   13 1
  20    9   33 1
  21    9   48 1
  22   10   11 1
  23   10   40 1
  24   10   42 1
  25   11   12 1
  26   11   49 1
  27   11   50 1
  28   12   13 1
  29   12   21 1
  30   13   14 2
  31   14   22 1
  32   15   16 1
  33   15   19 1
  34   16   17 2
  35   16   51 1
  36   17   18 1
  37   17   20 1
  38   18   19 2
  39   19   52 1
  40   20   53 1
  41   20   54 1
  42   20   55 1
  43   21   22 1
  44   21   23 1
  45   21   25 1
  46   23   26 ar
  47   23   28 ar
  48   24   31 1
  49   25   56 1
  50   25   57 1
  51   25   58 1
  52   26   32 ar
  53   26   59 1
  54   27   28 ar
  55   27   29 ar
  56   27   60 1
  57   28   61 1
  58   29   30 1
  59   29   32 ar
  60   31   62 1
  61   31   63 1
  62   31   64 1
  63   32   65 1
  64   33   36 1
  65   33   66 1
  66   33   67 1
  67   34   35 1
  68   34   38 1
  69   34   68 1
  70   35   36 1
  71   35   69 1
  72   35   70 1
  73   36   37 2
  74   38   39 1
  75   39   71 1
  76   39   72 1
  77   39   73 1
  78   40   41 1
  79   40   74 1
  80   40   75 1
  81   41   42 1
  82   42   76 1
  83   42   77 1

#	End of record

