#	Name: ASD07480045
#	Creating user name:	WinNT
#	Creation time:	15. 06. 2019 21:11

#	Modifying user name:	WinNT
#	Modification time:	15. 06. 2019 21:11

#	Program:	/corina/corina34_cracker 3.40 0067  02.08.2006

@<TRIPOS>MOLECULE
ASD07480045
  48   51    0    0    0
SMALL
NO_CHARGES


@<TRIPOS>ATOM
   1 C1             0.2642     1.6320     0.2659 C.ar    
   2 C2             0.3167     0.5860    -0.6567 C.ar    
   3 N3            -0.7893     0.0566    -1.1372 N.ar    
   4 C4            -1.9827     0.4840    -0.7741 C.ar    
   5 C5            -2.1236     1.5216     0.1401 C.ar    
   6 C6            -0.9850     2.1087     0.6790 C.ar    
   7 N7            -3.3963     1.9660     0.5172 N.am    
   8 C8            -3.6213     3.2808     0.7098 C.2     
   9 O9            -2.7025     4.0720     0.6328 O.2     
  10 N10           -4.8655     3.7179     0.9880 N.am    
  11 C11           -5.2324     5.0115     1.2041 C.2     
  12 C12            1.5088     2.2230     0.8031 C.2     
  13 C13            2.7102     1.3929     0.9533 C.2     
  14 O14            1.5371     3.3973     1.1206 O.2     
  15 C15            2.8039     0.0438     0.7586 C.2     
  16 C16            4.0562     1.8489     1.3377 C.ar    
  17 C17            4.8672     0.6973     1.3464 C.ar    
  18 N18            4.0756    -0.3653     0.9926 N.pl3   
  19 C19            4.6272     3.0744     1.6620 C.ar    
  20 N20            5.9148     3.1102     1.9671 N.ar    
  21 C21            6.6467     2.0109     1.9656 C.ar    
  22 N22            6.1506     0.8295     1.6655 N.ar    
  23 C23            4.5394    -1.7506     0.8830 C.3     
  24 C24            3.7538    -2.6300     1.8579 C.3     
  25 C25            4.3191    -2.2507    -0.5461 C.3     
  26 C26           -6.5612     5.0233     1.4479 C.2     
  27 C27           -7.0252     3.7024     1.3802 C.2     
  28 N28           -6.0140     2.9235     1.1004 N.2     
  29 F29           -7.8913     6.7686     0.5431 F       
  30 F30           -8.4667     5.8855     2.5700 F       
  31 C31           -7.3973     6.2422     1.7415 C.3     
  32 F32           -6.6103     7.2039     2.3840 F       
  33 H33            1.2747     0.2069    -0.9804 H       
  34 H34           -2.8638     0.0213    -1.1935 H       
  35 H35           -1.0622     2.9164     1.3918 H       
  36 H36           -4.1162     1.3276     0.6399 H       
  37 H37           -4.5797     5.8717     1.1846 H       
  38 H38            1.9883    -0.5997     0.4633 H       
  39 H39            4.0337     3.9767     1.6646 H       
  40 H40            7.6937     2.0844     2.2202 H       
  41 H41            5.6011    -1.7985     1.1251 H       
  42 H42            2.6921    -2.5821     1.6158 H       
  43 H43            4.0989    -3.6608     1.7764 H       
  44 H44            3.9108    -2.2738     2.8760 H       
  45 H45            4.8787    -1.6242    -1.2406 H       
  46 H46            4.6642    -3.2814    -0.6276 H       
  47 H47            3.2574    -2.2028    -0.7882 H       
  48 H48           -8.0461     3.3832     1.5296 H       
@<TRIPOS>BOND
   1    1    2 ar
   2    1   12 1
   3    1    6 ar
   4    2    3 ar
   5    2   33 1
   6    3    4 ar
   7    4    5 ar
   8    4   34 1
   9    5    6 ar
  10    5    7 1
  11    6   35 1
  12    7    8 am
  13    7   36 1
  14    8    9 2
  15    8   10 am
  16   10   11 1
  17   10   28 1
  18   11   26 2
  19   11   37 1
  20   12   13 1
  21   12   14 2
  22   13   15 2
  23   13   16 1
  24   15   18 1
  25   15   38 1
  26   16   17 ar
  27   16   19 ar
  28   17   18 1
  29   17   22 ar
  30   18   23 1
  31   19   20 ar
  32   19   39 1
  33   20   21 ar
  34   21   22 ar
  35   21   40 1
  36   23   24 1
  37   23   25 1
  38   23   41 1
  39   24   42 1
  40   24   43 1
  41   24   44 1
  42   25   45 1
  43   25   46 1
  44   25   47 1
  45   26   27 1
  46   26   31 1
  47   27   28 2
  48   27   48 1
  49   29   31 1
  50   30   31 1
  51   31   32 1

#	End of record

