#	Name: ASD03080122
#	Creating user name:	WinNT
#	Creation time:	15. 06. 2019 20:26

#	Modifying user name:	WinNT
#	Modification time:	15. 06. 2019 20:26

#	Program:	/corina/corina34_cracker 3.40 0067  02.08.2006

@<TRIPOS>MOLECULE
ASD03080122
  30   32    0    0    0
SMALL
NO_CHARGES


@<TRIPOS>ATOM
   1 N1            -0.0162     1.3436     0.0094 N.am    
   2 C2             0.0021    -0.0041     0.0020 C.2     
   3 O3             1.0628    -0.5974    -0.0113 O.2     
   4 C4            -1.2682    -0.7607     0.0101 C.ar    
   5 C5            -2.4877    -0.0817     0.0254 C.ar    
   6 C6            -3.6719    -0.7906     0.0324 C.ar    
   7 C7            -3.6554    -2.1726     0.0248 C.ar    
   8 C8            -2.4465    -2.8578     0.0100 C.ar    
   9 C9            -1.2521    -2.1555    -0.0034 C.ar    
  10 N10           -2.4354    -4.2599     0.0033 N.pl3   
  11 N11           -1.3794    -4.9961    -0.0098 N.2     
  12 N12           -1.7334    -6.2364    -0.0125 N.2     
  13 C13           -3.0737    -6.2678    -0.0004 C.2     
  14 N14           -3.4806    -5.0136     0.0148 N.2     
  15 C15           -3.9323    -7.4787     0.0012 C.ar    
  16 C16           -3.3614    -8.7537    -0.0099 C.ar    
  17 C17           -4.2054    -9.8513    -0.0074 C.ar    
  18 C18           -5.5736    -9.6522     0.0060 C.ar    
  19 N19           -6.0836    -8.4357     0.0159 N.ar    
  20 C20           -5.3204    -7.3621     0.0198 C.ar    
  21 H21            0.8172     1.8399     0.0041 H       
  22 H22           -0.8627     1.8171     0.0160 H       
  23 H23           -2.5045     0.9981     0.0321 H       
  24 H24           -4.6146    -0.2636     0.0442 H       
  25 H25           -4.5853    -2.7219     0.0307 H       
  26 H26           -0.3116    -2.6863    -0.0149 H       
  27 H27           -2.2888    -8.8800    -0.0207 H       
  28 H28           -3.7995   -10.8521    -0.0161 H       
  29 H29           -6.2350   -10.5060     0.0081 H       
  30 H30           -5.7750    -6.3824     0.0280 H       
@<TRIPOS>BOND
   1    1    2 am
   2    1   21 1
   3    1   22 1
   4    2    3 2
   5    2    4 1
   6    4    5 ar
   7    4    9 ar
   8    5    6 ar
   9    5   23 1
  10    6    7 ar
  11    6   24 1
  12    7    8 ar
  13    7   25 1
  14    8    9 ar
  15    8   10 1
  16    9   26 1
  17   10   11 1
  18   10   14 1
  19   11   12 2
  20   12   13 1
  21   13   14 2
  22   13   15 1
  23   15   16 ar
  24   15   20 ar
  25   16   17 ar
  26   16   27 1
  27   17   18 ar
  28   17   28 1
  29   18   19 ar
  30   18   29 1
  31   19   20 ar
  32   20   30 1

#	End of record

