#	Name: ASD01001283
#	Creating user name:	WinNT
#	Creation time:	15. 06. 2019 18:55

#	Modifying user name:	WinNT
#	Modification time:	15. 06. 2019 18:55

#	Program:	/corina/corina34_cracker 3.40 0067  02.08.2006

@<TRIPOS>MOLECULE
ASD01001283
  37   39    0    0    0
SMALL
NO_CHARGES


@<TRIPOS>ATOM
   1 N1            -0.0159     1.3187     0.0093 N.ar    
   2 C2             0.0021    -0.0041     0.0020 C.ar    
   3 C3             1.1864    -0.7069    -0.0127 C.ar    
   4 C4             2.3878    -0.0023    -0.0204 C.ar    
   5 C5             2.3322     1.4089    -0.0129 C.ar    
   6 C6             1.0881     2.0363     0.0026 C.ar    
   7 N7             3.7123    -0.3589    -0.0350 N.pl3   
   8 C8             4.4975     0.7607    -0.0383 C.2     
   9 C9             3.7188     1.8596    -0.0258 C.2     
  10 C10            6.0082     0.8045    -0.0535 C.3     
  11 C11            6.4594     2.2073     0.3681 C.3     
  12 C12            5.7069     3.2557    -0.4562 C.3     
  13 C13            4.2344     3.2757    -0.0276 C.3     
  14 C14            6.3269     4.6340    -0.2179 C.3     
  15 C15            7.7970     4.6121    -0.6411 C.3     
  16 C16            5.5745     5.6810    -1.0417 C.3     
  17 C17            6.2290     4.9872     1.2676 C.3     
  18 H18           -0.9328    -0.5448     0.0081 H       
  19 H19            1.1835    -1.7869    -0.0178 H       
  20 H20            1.0292     3.1147     0.0092 H       
  21 H21            4.0431    -1.2707    -0.0420 H       
  22 H22            6.4029     0.0674     0.6458 H       
  23 H23            6.3706     0.5901    -1.0589 H       
  24 H24            6.2450     2.3550     1.4265 H       
  25 H25            7.5309     2.3110     0.1967 H       
  26 H26            5.7748     3.0037    -1.5145 H       
  27 H27            3.6561     3.8747    -0.7311 H       
  28 H28            4.1500     3.6982     0.9736 H       
  29 H29            7.8668     4.3604    -1.6993 H       
  30 H30            8.2387     5.5940    -0.4712 H       
  31 H31            8.3330     3.8662    -0.0541 H       
  32 H32            4.5272     5.6966    -0.7402 H       
  33 H33            6.0162     6.6629    -0.8719 H       
  34 H34            5.6443     5.4293    -2.1000 H       
  35 H35            6.7649     4.2414     1.8545 H       
  36 H36            6.6706     5.9692     1.4374 H       
  37 H37            5.1816     5.0029     1.5691 H       
@<TRIPOS>BOND
   1    1    2 ar
   2    1    6 ar
   3    2    3 ar
   4    2   18 1
   5    3    4 ar
   6    3   19 1
   7    4    5 ar
   8    4    7 1
   9    5    6 ar
  10    5    9 1
  11    6   20 1
  12    7    8 1
  13    7   21 1
  14    8    9 2
  15    8   10 1
  16    9   13 1
  17   10   11 1
  18   10   22 1
  19   10   23 1
  20   11   12 1
  21   11   24 1
  22   11   25 1
  23   12   13 1
  24   12   14 1
  25   12   26 1
  26   13   27 1
  27   13   28 1
  28   14   15 1
  29   14   16 1
  30   14   17 1
  31   15   29 1
  32   15   30 1
  33   15   31 1
  34   16   32 1
  35   16   33 1
  36   16   34 1
  37   17   35 1
  38   17   36 1
  39   17   37 1

#	End of record

