#	Name: ASD01883372
#	Creating user name:	WinNT
#	Creation time:	15. 06. 2019 19:46

#	Modifying user name:	WinNT
#	Modification time:	15. 06. 2019 19:46

#	Program:	/corina/corina34_cracker 3.40 0067  02.08.2006

@<TRIPOS>MOLECULE
ASD01883372
  58   60    0    0    0
SMALL
NO_CHARGES


@<TRIPOS>ATOM
   1 N1            -0.0071     1.1266     0.8616 N.am    
   2 C2            -0.5024     0.3724     1.8603 C.2     
   3 C3            -1.7499    -0.2762     1.7027 C.2     
   4 C4            -2.4469    -0.1139     0.4935 C.2     
   5 C5            -1.8771     0.6873    -0.5133 C.2     
   6 C6            -0.6846     1.2868    -0.3050 C.2     
   7 O7             0.1235     0.2480     2.8995 O.2     
   8 C8            -2.2914    -1.0828     2.7548 C.1     
   9 N9            -2.7210    -1.7226     3.5894 N.1     
  10 C10            1.2855     1.7930     1.0383 C.3     
  11 C11            2.4059     0.8681     0.5587 C.3     
  12 C12            3.7559     1.5641     0.7433 C.3     
  13 N13           -3.6638    -0.7272     0.2973 N.pl3   
  14 C14           -3.7667    -2.1923     0.2188 C.3     
  15 C15           -4.8566    -2.6565     1.1910 C.3     
  16 N16           -6.1019    -1.9303     0.9085 N.3     
  17 C17           -5.9407    -0.4879     1.1350 C.3     
  18 C18           -4.8961     0.0649     0.1667 C.3     
  19 C19            4.8831     0.5949     0.3812 C.3     
  20 C20            3.8260     2.7911    -0.1680 C.3     
  21 C21           -7.2157    -2.4666     1.7021 C.3     
  22 C22           -6.9668    -2.1966     3.1636 C.ar    
  23 C23           -7.4252    -1.0257     3.7380 C.ar    
  24 C24           -7.1969    -0.7780     5.0787 C.ar    
  25 C25           -6.5106    -1.7013     5.8451 C.ar    
  26 C26           -6.0530    -2.8726     5.2709 C.ar    
  27 C27           -6.2851    -3.1223     3.9313 C.ar    
  28 C28           -4.6067     1.5290     0.5037 C.3     
  29 H29           -2.3948     0.8259    -1.4509 H       
  30 H30           -0.2571     1.8993    -1.0850 H       
  31 H31            1.3015     2.7149     0.4570 H       
  32 H32            1.4330     2.0259     2.0929 H       
  33 H33            2.3899    -0.0538     1.1400 H       
  34 H34            2.2584     0.6353    -0.4959 H       
  35 H35            3.8647     1.8762     1.7820 H       
  36 H36           -4.0321    -2.4869    -0.7965 H       
  37 H37           -2.8132    -2.6418     0.4961 H       
  38 H38           -5.0233    -3.7265     1.0666 H       
  39 H39           -4.5414    -2.4537     2.2145 H       
  40 H40           -6.8936     0.0150     0.9700 H       
  41 H41           -5.6104    -0.3152     2.1593 H       
  42 H42           -5.2672    -0.0121    -0.8553 H       
  43 H43            4.7742     0.2828    -0.6574 H       
  44 H44            5.8448     1.0907     0.5127 H       
  45 H45            4.8332    -0.2793     1.0304 H       
  46 H46            3.0230     3.4816     0.0899 H       
  47 H47            4.7877     3.2869    -0.0365 H       
  48 H48            3.7171     2.4790    -1.2067 H       
  49 H49           -8.1445    -1.9849     1.3966 H       
  50 H50           -7.2933    -3.5416     1.5393 H       
  51 H51           -7.9614    -0.3044     3.1393 H       
  52 H52           -7.5544     0.1371     5.5273 H       
  53 H53           -6.3316    -1.5075     6.8924 H       
  54 H54           -5.5165    -3.5938     5.8696 H       
  55 H55           -5.9276    -4.0373     3.4827 H       
  56 H56           -4.1257     1.5889     1.4800 H       
  57 H57           -3.9465     1.9524    -0.2532 H       
  58 H58           -5.5418     2.0887     0.5245 H       
@<TRIPOS>BOND
   1    1    2 am
   2    1   10 1
   3    1    6 1
   4    2    3 1
   5    2    7 2
   6    3    4 2
   7    3    8 1
   8    4    5 1
   9    4   13 1
  10    5    6 2
  11    5   29 1
  12    6   30 1
  13    8    9 3
  14   10   11 1
  15   10   31 1
  16   10   32 1
  17   11   12 1
  18   11   33 1
  19   11   34 1
  20   12   19 1
  21   12   20 1
  22   12   35 1
  23   13   14 1
  24   13   18 1
  25   14   15 1
  26   14   36 1
  27   14   37 1
  28   15   16 1
  29   15   38 1
  30   15   39 1
  31   16   17 1
  32   16   21 1
  33   17   18 1
  34   17   40 1
  35   17   41 1
  36   18   28 1
  37   18   42 1
  38   19   43 1
  39   19   44 1
  40   19   45 1
  41   20   46 1
  42   20   47 1
  43   20   48 1
  44   21   22 1
  45   21   49 1
  46   21   50 1
  47   22   23 ar
  48   22   27 ar
  49   23   24 ar
  50   23   51 1
  51   24   25 ar
  52   24   52 1
  53   25   26 ar
  54   25   53 1
  55   26   27 ar
  56   26   54 1
  57   27   55 1
  58   28   56 1
  59   28   57 1
  60   28   58 1

#	End of record

