#	Name: ASD05250010
#	Creating user name:	WinNT
#	Creation time:	15. 06. 2019 20:58

#	Modifying user name:	WinNT
#	Modification time:	15. 06. 2019 20:58

#	Program:	/corina/corina34_cracker 3.40 0067  02.08.2006

@<TRIPOS>MOLECULE
ASD05250010
  38   41    0    0    0
SMALL
NO_CHARGES


@<TRIPOS>ATOM
   1 O1             0.0017    -0.1108     0.6418 O.2     
   2 C2            -0.0465     1.1027     0.5742 C.2     
   3 C3             1.1855     1.8770     0.3466 C.ar    
   4 C4             1.1505     3.2667     0.2662 C.ar    
   5 N5             2.2524     3.9629     0.0629 N.ar    
   6 C6             3.4373     3.3995    -0.0751 C.ar    
   7 C7             3.5809     2.0212    -0.0118 C.ar    
   8 C8             2.4358     1.2277     0.2099 C.ar    
   9 C9             2.8606    -0.1140     0.2285 C.2     
  10 C10            4.2056    -0.1264     0.0265 C.2     
  11 N11            4.6547     1.1638    -0.1160 N.pl3   
  12 C12            5.0518    -1.3378    -0.0265 C.ar    
  13 C13            4.6636    -2.4304    -0.8028 C.ar    
  14 C14            5.4578    -3.5579    -0.8478 C.ar    
  15 C15            6.6366    -3.6065    -0.1255 C.ar    
  16 C16            7.0271    -2.5266     0.6467 C.ar    
  17 C17            6.2454    -1.3911     0.6954 C.ar    
  18 C18            6.6722    -0.2160     1.5368 C.3     
  19 F19            7.7961    -0.5670     2.2923 F       
  20 F20            6.9883     0.8632     0.7044 F       
  21 F21            5.6284     0.1469     2.3947 F       
  22 N22           -1.2280     1.7384     0.7020 N.am    
  23 C23           -2.3905     1.0078     0.9110 C.2     
  24 N24           -3.5744     1.5187     1.0468 N.2     
  25 C25           -4.5708     0.6748     1.2392 C.2     
  26 C26           -4.2120    -0.6102     1.2673 C.2     
  27 S27           -2.4700    -0.6966     1.0192 S.3     
  28 H28            0.2074     3.7822     0.3716 H       
  29 H29            4.3064     4.0191    -0.2398 H       
  30 H30            2.2312    -0.9790     0.3768 H       
  31 H31            5.5753     1.4276    -0.2701 H       
  32 H32            3.7433    -2.3939    -1.3669 H       
  33 H33            5.1583    -4.4043    -1.4479 H       
  34 H34            7.2547    -4.4913    -0.1641 H       
  35 H35            7.9482    -2.5711     1.2088 H       
  36 H36           -1.2664     2.7061     0.6481 H       
  37 H37           -5.5936     0.9980     1.3644 H       
  38 H38           -4.8745    -1.4507     1.4124 H       
@<TRIPOS>BOND
   1    1    2 2
   2    2    3 1
   3    2   22 am
   4    3    4 ar
   5    3    8 ar
   6    4    5 ar
   7    4   28 1
   8    5    6 ar
   9    6    7 ar
  10    6   29 1
  11    7    8 ar
  12    7   11 1
  13    8    9 1
  14    9   10 2
  15    9   30 1
  16   10   11 1
  17   10   12 1
  18   11   31 1
  19   12   13 ar
  20   12   17 ar
  21   13   14 ar
  22   13   32 1
  23   14   15 ar
  24   14   33 1
  25   15   16 ar
  26   15   34 1
  27   16   17 ar
  28   16   35 1
  29   17   18 1
  30   18   19 1
  31   18   20 1
  32   18   21 1
  33   22   23 1
  34   22   36 1
  35   23   24 2
  36   23   27 1
  37   24   25 1
  38   25   26 2
  39   25   37 1
  40   26   27 1
  41   26   38 1

#	End of record

