#	Name: ASD00520005
#	Creating user name:	WinNT
#	Creation time:	15. 06. 2019 18:36

#	Modifying user name:	WinNT
#	Modification time:	15. 06. 2019 18:36

#	Program:	/corina/corina34_cracker 3.40 0067  02.08.2006

@<TRIPOS>MOLECULE
ASD00520005
  73   80    0    0    0
SMALL
NO_CHARGES


@<TRIPOS>ATOM
   1 Cu1           -0.5316     0.0042    -0.3698 Du      
   2 S2            -0.9478     1.8506    -0.3284 S.o     
   3 N3            -0.7923     0.1972     1.1794 N.pl3   
   4 N4             1.0103     0.1000     0.0015 N.3     
   5 S5            -0.7977    -1.8408    -0.0904 S.o     
   6 N6            -0.1653    -0.2839    -1.8861 N.3     
   7 C7            -1.8056     0.9699     1.8950 C.3     
   8 C8            -1.9664     0.4392     3.2940 C.2     
   9 C9            -1.1006    -0.4016     3.8745 C.2     
  10 C10            0.0681    -0.8413     3.2165 C.2     
  11 C11            0.2222    -0.4677     1.8871 C.2     
  12 C12            1.2881    -0.5347     1.0337 C.2     
  13 C13            2.5571    -1.2354     1.2721 C.ar    
  14 C14            2.6141    -2.3045     2.1800 C.ar    
  15 C15            3.8085    -2.9553     2.3962 C.ar    
  16 C16            4.9512    -2.5579     1.7212 C.ar    
  17 C17            4.9054    -1.5036     0.8237 C.ar    
  18 C18            3.7194    -0.8438     0.5893 C.ar    
  19 N19            1.3618     1.4030     0.1707 N.am    
  20 C20            0.4731     2.3952     0.0275 C.2     
  21 S21            0.8748     4.1081     0.2222 S.3     
  22 C22           -0.7089     4.9365    -0.0879 C.3     
  23 C23           -1.1215    -0.4656    -2.6417 C.2     
  24 N24           -1.8720    -0.8201    -0.4232 N.3     
  25 C25           -2.3324    -0.8291    -1.8305 C.3     
  26 C26           -1.0617    -0.3561    -4.0264 C.ar    
  27 C27           -1.8291     0.6244    -4.6995 C.ar    
  28 C28           -1.7600     0.7199    -6.0591 C.ar    
  29 C29           -0.9427    -0.1383    -6.7813 C.ar    
  30 C30           -0.1846    -1.1045    -6.1354 C.ar    
  31 C31           -0.2284    -1.2202    -4.7763 C.ar    
  32 C32           -3.4220     0.1867    -2.0429 C.2     
  33 C33           -4.2485     0.4822    -1.0437 C.2     
  34 C34           -4.0518    -0.1715     0.2579 C.2     
  35 C35           -2.9046    -0.7873     0.5206 C.2     
  36 N36            0.6053     0.8216    -2.4536 N.3     
  37 C37            1.9379     0.3715    -2.8772 C.3     
  38 S38            2.7885     1.7244    -3.7356 S.3     
  39 C39            3.2675     2.8305    -2.3800 C.3     
  40 H40           -1.1181     2.1861    -1.6107 H       
  41 H41            1.5742    -0.3228    -0.7264 H       
  42 H42           -0.5333    -2.3882    -1.2873 H       
  43 H43            0.4264    -1.1121    -1.9324 H       
  44 H44           -1.4337     2.0083     1.9882 H       
  45 H45           -2.7547     1.0228     1.3927 H       
  46 H46           -2.8317     0.7566     3.8702 H       
  47 H47           -1.3002    -0.7451     4.8822 H       
  48 H48            0.7994    -1.4364     3.7316 H       
  49 H49            1.7244    -2.6155     2.7074 H       
  50 H50            3.8546    -3.7778     3.0945 H       
  51 H51            5.8841    -3.0732     1.8962 H       
  52 H52            5.8017    -1.2011     0.3026 H       
  53 H53            3.6857    -0.0221    -0.1108 H       
  54 H54            2.3056     1.6355     0.4019 H       
  55 H55           -1.4463     4.5940     0.6380 H       
  56 H56           -0.5796     6.0147     0.0066 H       
  57 H57           -1.0524     4.6986    -1.0946 H       
  58 H58           -2.6914    -1.8201    -2.0968 H       
  59 H59           -2.4663     1.2934    -4.1401 H       
  60 H60           -2.3446     1.4667    -6.5757 H       
  61 H61           -0.8966    -0.0534    -7.8570 H       
  62 H62            0.4469    -1.7653    -6.7108 H       
  63 H63            0.3627    -1.9732    -4.2762 H       
  64 H64           -3.5379     0.6803    -2.9945 H       
  65 H65           -5.0500     1.1884    -1.1897 H       
  66 H66           -4.8371    -0.1544     0.9982 H       
  67 H67           -2.7763    -1.2749     1.4776 H       
  68 H68            0.1091     1.2528    -3.2190 H       
  69 H69            2.5167     0.0756    -2.0022 H       
  70 H70            1.8369    -0.4795    -3.5508 H       
  71 H71            3.7954     3.6940    -2.7849 H       
  72 H72            2.3749     3.1653    -1.8516 H       
  73 H73            3.9201     2.2969    -1.6890 H       
@<TRIPOS>BOND
   1    1    2 1
   2    1    3 1
   3    1    4 1
   4    1    5 1
   5    1    6 1
   6    1   24 1
   7    2   20 2
   8    2   40 1
   9    3    7 1
  10    3   11 1
  11    4   19 1
  12    4   12 2
  13    4   41 1
  14    5   24 2
  15    5   42 1
  16    6   23 2
  17    6   36 1
  18    6   43 1
  19    7    8 1
  20    7   44 1
  21    7   45 1
  22    8    9 2
  23    8   46 1
  24    9   10 1
  25    9   47 1
  26   10   11 2
  27   10   48 1
  28   11   12 1
  29   12   13 1
  30   13   14 ar
  31   13   18 ar
  32   14   15 ar
  33   14   49 1
  34   15   16 ar
  35   15   50 1
  36   16   17 ar
  37   16   51 1
  38   17   18 ar
  39   17   52 1
  40   18   53 1
  41   19   20 am
  42   19   54 1
  43   20   21 1
  44   21   22 1
  45   22   55 1
  46   22   56 1
  47   22   57 1
  48   23   25 1
  49   23   26 1
  50   24   25 1
  51   24   35 1
  52   25   32 1
  53   25   58 1
  54   26   27 ar
  55   26   31 ar
  56   27   28 ar
  57   27   59 1
  58   28   29 ar
  59   28   60 1
  60   29   30 ar
  61   29   61 1
  62   30   31 ar
  63   30   62 1
  64   31   63 1
  65   32   33 2
  66   32   64 1
  67   33   34 1
  68   33   65 1
  69   34   35 2
  70   34   66 1
  71   35   67 1
  72   36   37 1
  73   36   68 1
  74   37   38 1
  75   37   69 1
  76   37   70 1
  77   38   39 1
  78   39   71 1
  79   39   72 1
  80   39   73 1

#	End of record

