#	Name: ASD01910819
#	Creating user name:	WinNT
#	Creation time:	15. 06. 2019 19:56

#	Modifying user name:	WinNT
#	Modification time:	15. 06. 2019 19:56

#	Program:	/corina/corina34_cracker 3.40 0067  02.08.2006

@<TRIPOS>MOLECULE
ASD01910819
  50   53    0    0    0
SMALL
NO_CHARGES


@<TRIPOS>ATOM
   1 C1             0.0439     1.7593    -0.4812 C.ar    
   2 C2             0.0888     0.6323     0.3205 C.ar    
   3 C3             1.2910    -0.0802     0.3993 C.ar    
   4 C4             2.3979     0.3770    -0.3363 C.ar    
   5 N5             2.2997     1.4625    -1.0877 N.ar    
   6 C6             1.1759     2.1471    -1.1754 C.ar    
   7 N7             3.5972    -0.3110    -0.2742 N.3     
   8 C8             4.7374     0.6147    -0.3067 C.3     
   9 C9             6.0320    -0.1657    -0.0547 C.3     
  10 N10            6.1039    -1.2749    -1.0178 N.am    
  11 C11            4.9404    -2.1663    -1.1407 C.3     
  12 C12            3.6889    -1.3072    -1.3499 C.3     
  13 C13            7.2067    -1.4696    -1.7676 C.2     
  14 C14            7.3078    -2.6602    -2.6388 C.ar    
  15 O15            8.1184    -0.6666    -1.7277 O.2     
  16 C16            7.8695    -2.5494    -3.9127 C.ar    
  17 C17            7.9655    -3.6600    -4.7281 C.ar    
  18 C18            7.5078    -4.8866    -4.2915 C.ar    
  19 C19            6.9430    -5.0125    -3.0184 C.ar    
  20 C20            6.8481    -3.8957    -2.1883 C.ar    
  21 C21            6.4679    -6.2855    -2.5664 C.1     
  22 C22            6.0784    -7.3292    -2.1958 C.1     
  23 C23            5.6034    -8.6022    -1.7437 C.ar    
  24 C24            5.0388    -8.7296    -0.4719 C.ar    
  25 C25            4.5830    -9.9588    -0.0435 C.ar    
  26 C26            4.6841   -11.0644    -0.8696 C.ar    
  27 C27            5.2424   -10.9459    -2.1302 C.ar    
  28 C28            5.6969    -9.7218    -2.5746 C.ar    
  29 C29            1.3913    -1.2531     1.2146 C.1     
  30 N30            1.4710    -2.1836     1.8614 N.1     
  31 H31           -0.8693     2.3294    -0.5677 H       
  32 H32           -0.7822     0.3106     0.8721 H       
  33 H33            1.1387     3.0271    -1.8005 H       
  34 H34            4.7873     1.0963    -1.2832 H       
  35 H35            4.6130     1.3723     0.4670 H       
  36 H36            6.8893     0.4936    -0.1907 H       
  37 H37            6.0288    -0.5620     0.9607 H       
  38 H38            5.0761    -2.8298    -1.9948 H       
  39 H39            4.8324    -2.7550    -0.2297 H       
  40 H40            2.8040    -1.9434    -1.3328 H       
  41 H41            3.7534    -0.7988    -2.3120 H       
  42 H42            8.2295    -1.5926    -4.2611 H       
  43 H43            8.4005    -3.5680    -5.7124 H       
  44 H44            7.5855    -5.7509    -4.9345 H       
  45 H45            6.4130    -3.9867    -1.2040 H       
  46 H46            4.9599    -7.8678     0.1742 H       
  47 H47            4.1464   -10.0588     0.9392 H       
  48 H48            4.3258   -12.0245    -0.5287 H       
  49 H49            5.3187   -11.8132    -2.7693 H       
  50 H50            6.1324    -9.6308    -3.5586 H       
@<TRIPOS>BOND
   1    1    2 ar
   2    1    6 ar
   3    1   31 1
   4    2    3 ar
   5    2   32 1
   6    3    4 ar
   7    3   29 1
   8    4    5 ar
   9    4    7 1
  10    5    6 ar
  11    6   33 1
  12    7    8 1
  13    7   12 1
  14    8    9 1
  15    8   34 1
  16    8   35 1
  17    9   10 1
  18    9   36 1
  19    9   37 1
  20   10   11 1
  21   10   13 am
  22   11   12 1
  23   11   38 1
  24   11   39 1
  25   12   40 1
  26   12   41 1
  27   13   14 1
  28   13   15 2
  29   14   16 ar
  30   14   20 ar
  31   16   17 ar
  32   16   42 1
  33   17   18 ar
  34   17   43 1
  35   18   19 ar
  36   18   44 1
  37   19   20 ar
  38   19   21 1
  39   20   45 1
  40   21   22 3
  41   22   23 1
  42   23   24 ar
  43   23   28 ar
  44   24   25 ar
  45   24   46 1
  46   25   26 ar
  47   25   47 1
  48   26   27 ar
  49   26   48 1
  50   27   28 ar
  51   27   49 1
  52   28   50 1
  53   29   30 3

#	End of record

