#	Name: ASD00960076
#	Creating user name:	WinNT
#	Creation time:	15. 06. 2019 18:53

#	Modifying user name:	WinNT
#	Modification time:	15. 06. 2019 18:53

#	Program:	/corina/corina34_cracker 3.40 0067  02.08.2006

@<TRIPOS>MOLECULE
ASD00960076
  37   39    0    0    0
SMALL
NO_CHARGES


@<TRIPOS>ATOM
   1 C1            -0.0187     1.5258     0.0104 C.3     
   2 C2            -0.7939     2.0498     1.2396 C.3     
   3 O3            -2.1388     2.2699     0.7613 O.3     
   4 C4            -1.9852     2.8481    -0.5533 C.3     
   5 C5            -3.2663     2.6636    -1.3692 C.3     
   6 C6            -0.7904     1.0203     2.3401 C.2     
   7 C7             0.1928     0.8597     3.2580 C.2     
   8 N8            -1.7720     0.1165     2.5682 N.pl3   
   9 C9            -1.4197    -0.6548     3.6562 C.2     
  10 C10           -0.1794    -0.2012     4.1080 C.2     
  11 N11           -2.9944    -0.1488     1.9339 N.2     
  12 C12           -3.7656    -1.1047     2.3756 C.2     
  13 N13           -3.4366    -1.8553     3.4246 N.2     
  14 C14           -2.3007    -1.6709     4.0790 C.2     
  15 O15           -4.3194     3.4310    -0.7825 O.3     
  16 N16           -1.9833    -2.4635     5.1646 N.pl3   
  17 C17            0.5678    -0.7127     5.2174 C.1     
  18 C18            1.1803    -1.1320     6.1269 C.1     
  19 C19           -0.8173     2.0630    -1.1982 C.3     
  20 F20           -0.0243     2.9144    -1.9750 F       
  21 C21            0.0021    -0.0041     0.0020 C.3     
  22 O22            1.3133     2.0434     0.0005 O.3     
  23 *23            2.0754     1.6441    -1.1166 Du      
  24 H24           -0.3588     2.9849     1.5922 H       
  25 H25           -1.7328     3.9056    -0.4756 H       
  26 H26           -3.0974     3.0006    -2.3919 H       
  27 H27           -3.5446     1.6097    -1.3752 H       
  28 H28            1.1006     1.4409     3.3260 H       
  29 H29           -4.7028    -1.2930     1.8731 H       
  30 H30           -5.1636     3.3615    -1.2490 H       
  31 H31           -2.5942    -3.1602     5.4516 H       
  32 H32           -1.1494    -2.3236     5.6400 H       
  33 H33            1.7282    -1.5071     6.9403 H       
  34 H34           -1.1981     1.2386    -1.8010 H       
  35 H35            0.5184    -0.3653     0.8914 H       
  36 H36           -1.0206    -0.3813    -0.0028 H       
  37 H37            0.5232    -0.3555    -0.8885 H       
@<TRIPOS>BOND
   1    1   21 1
   2    1   22 1
   3    1    2 1
   4    1   19 1
   5    2    3 1
   6    2    6 1
   7    2   24 1
   8    3    4 1
   9    4   19 1
  10    4    5 1
  11    4   25 1
  12    5   15 1
  13    5   26 1
  14    5   27 1
  15    6    7 2
  16    6    8 1
  17    7   10 1
  18    7   28 1
  19    8    9 1
  20    8   11 1
  21    9   10 2
  22    9   14 1
  23   10   17 1
  24   11   12 2
  25   12   13 1
  26   12   29 1
  27   13   14 2
  28   14   16 1
  29   15   30 1
  30   16   31 1
  31   16   32 1
  32   17   18 3
  33   18   33 1
  34   19   20 1
  35   19   34 1
  36   21   35 1
  37   21   36 1
  38   21   37 1
  39   22   23 1

#	End of record

