#	Name: ASD01150058
#	Creating user name:	WinNT
#	Creation time:	15. 06. 2019 19:03

#	Modifying user name:	WinNT
#	Modification time:	15. 06. 2019 19:03

#	Program:	/corina/corina34_cracker 3.40 0067  02.08.2006

@<TRIPOS>MOLECULE
ASD01150058
  17   16    0    0    0
SMALL
NO_CHARGES


@<TRIPOS>ATOM
   1 C1            -1.4914    -0.2664    -0.1048 C.3     
   2 C2             0.0116    -0.0028     0.0070 C.3     
   3 C3             0.7165    -0.6009    -1.1831 C.2     
   4 N4             0.9273    -1.9421    -1.2446 N.pl3   
   5 N5             1.1258     0.1716    -2.1578 N.2     
   6 C6             0.8190     1.4914    -2.1508 C.1     
   7 N7             0.5619     2.5979    -2.1449 N.1     
   8 C8             1.6126    -2.5236    -2.4016 C.3     
   9 H9            -1.8891     0.2606    -0.9721 H       
  10 H10           -1.6650    -1.3365    -0.2188 H       
  11 H11           -1.9907     0.0887     0.7967 H       
  12 H12            0.1909     1.0721     0.0332 H       
  13 H13            0.3931    -0.4571     0.9214 H       
  14 H14            0.6241    -2.5144    -0.5225 H       
  15 H15            2.6117    -2.0959    -2.4848 H       
  16 H16            1.6891    -3.6034    -2.2737 H       
  17 H17            1.0468    -2.3042    -3.3070 H       
@<TRIPOS>BOND
   1    1    2 1
   2    1    9 1
   3    1   10 1
   4    1   11 1
   5    2    3 1
   6    2   12 1
   7    2   13 1
   8    3    4 1
   9    3    5 2
  10    4    8 1
  11    4   14 1
  12    5    6 1
  13    6    7 3
  14    8   15 1
  15    8   16 1
  16    8   17 1

#	End of record

