#	Name: ASD01870225
#	Creating user name:	WinNT
#	Creation time:	15. 06. 2019 19:38

#	Modifying user name:	WinNT
#	Modification time:	15. 06. 2019 19:38

#	Program:	/corina/corina34_cracker 3.40 0067  02.08.2006

@<TRIPOS>MOLECULE
ASD01870225
  47   50    0    0    0
SMALL
NO_CHARGES


@<TRIPOS>ATOM
   1 C1            -0.0169     1.3960     0.0097 C.ar    
   2 C2             0.0021    -0.0030    -0.0464 C.ar    
   3 C3             1.1886     2.1070     0.0504 C.ar    
   4 C4             2.3858     1.4286     0.0351 C.ar    
   5 C5             2.3995     0.0385    -0.0206 C.ar    
   6 C6             1.2042    -0.6724    -0.0612 C.ar    
   7 N7             3.6174    -0.6457    -0.0359 N.am    
   8 C8             4.0257    -1.4208     0.9764 C.2     
   9 C9             4.4697    -0.5847    -1.0665 C.2     
  10 C10            5.6826    -1.4361    -0.7605 C.3     
  11 C11            5.3785    -2.0088     0.6389 C.3     
  12 O12            4.2970     0.0514    -2.0838 O.2     
  13 O13            3.4095    -1.6197     2.0012 O.2     
  14 C14            5.4905    -2.9414    -0.5650 C.3     
  15 C15            4.1980    -3.5620    -1.0990 C.3     
  16 C16            6.7339    -3.8282    -0.6567 C.3     
  17 C17           -1.2976     2.1157     0.0197 C.2     
  18 C18           -1.3153     3.6214     0.0801 C.3     
  19 O19           -2.3406     1.4981    -0.0206 O.2     
  20 C20           -2.6193     4.1409    -0.5285 C.3     
  21 C21           -2.6373     5.6696    -0.4672 C.3     
  22 C22           -2.5389     6.1227     0.9909 C.3     
  23 C23           -1.2348     5.6032     1.5995 C.3     
  24 C24           -1.2169     4.0745     1.5382 C.3     
  25 H25           -0.9252    -0.5557    -0.0775 H       
  26 H26            1.1790     3.1861     0.0934 H       
  27 H27            3.3162     1.9762     0.0661 H       
  28 H28            1.2199    -1.7515    -0.1045 H       
  29 H29            6.6620    -1.0402    -1.0292 H       
  30 H30            6.1284    -2.0443     1.4291 H       
  31 H31            3.5161    -2.7705    -1.4097 H       
  32 H32            4.4269    -4.2001    -1.9525 H       
  33 H33            3.7302    -4.1577    -0.3151 H       
  34 H34            6.7819    -4.4780     0.2171 H       
  35 H35            6.6804    -4.4367    -1.5595 H       
  36 H36            7.6251    -3.2017    -0.6931 H       
  37 H37           -0.4691     4.0175    -0.4814 H       
  38 H38           -2.6894     3.8181    -1.5672 H       
  39 H39           -3.4655     3.7448     0.0330 H       
  40 H40           -1.7912     6.0657    -1.0286 H       
  41 H41           -3.5663     6.0397    -0.9008 H       
  42 H42           -2.5517     7.2118     1.0346 H       
  43 H43           -3.3850     5.7266     1.5523 H       
  44 H44           -0.3887     5.9993     1.0380 H       
  45 H45           -1.1647     5.9260     2.6382 H       
  46 H46           -2.0630     3.6784     2.0996 H       
  47 H47           -0.2878     3.7044     1.9717 H       
@<TRIPOS>BOND
   1    1    2 ar
   2    1    3 ar
   3    1   17 1
   4    2    6 ar
   5    2   25 1
   6    3    4 ar
   7    3   26 1
   8    4    5 ar
   9    4   27 1
  10    5    6 ar
  11    5    7 1
  12    6   28 1
  13    7    8 am
  14    7    9 am
  15    8   13 2
  16    8   11 1
  17    9   12 2
  18    9   10 1
  19   10   11 1
  20   10   14 1
  21   10   29 1
  22   11   14 1
  23   11   30 1
  24   14   15 1
  25   14   16 1
  26   15   31 1
  27   15   32 1
  28   15   33 1
  29   16   34 1
  30   16   35 1
  31   16   36 1
  32   17   18 1
  33   17   19 2
  34   18   20 1
  35   18   24 1
  36   18   37 1
  37   20   21 1
  38   20   38 1
  39   20   39 1
  40   21   22 1
  41   21   40 1
  42   21   41 1
  43   22   23 1
  44   22   42 1
  45   22   43 1
  46   23   24 1
  47   23   44 1
  48   23   45 1
  49   24   46 1
  50   24   47 1

#	End of record

