#	Name: ASD07931728
#	Creating user name:	WinNT
#	Creation time:	15. 06. 2019 21:13

#	Modifying user name:	WinNT
#	Modification time:	15. 06. 2019 21:13

#	Program:	/corina/corina34_cracker 3.40 0067  02.08.2006

@<TRIPOS>MOLECULE
ASD07931728
  33   34    0    0    0
SMALL
NO_CHARGES


@<TRIPOS>ATOM
   1 C1             0.0003     1.9066    -0.0875 C.3     
   2 S2            -0.0249     0.0928    -0.0762 S.o2    
   3 O3             0.7776    -0.4104     0.9831 O.2     
   4 O4            -1.3448    -0.3889    -0.2878 O.2     
   5 O5             0.7268    -0.3053    -1.3383 O.3     
   6 C6             2.1436    -0.1422    -1.2469 C.3     
   7 C7             2.9377    -1.2163    -2.0088 C.3     
   8 C8             3.8916    -0.0909    -2.4430 C.3     
   9 C9             2.7122     0.8767    -2.2486 C.3     
  10 O10            2.2136    -1.8028    -3.0921 O.3     
  11 C11            2.6046    -3.0395    -3.4977 C.ar    
  12 C12            1.8759    -3.7162    -4.4653 C.ar    
  13 C13            2.2753    -4.9731    -4.8758 C.ar    
  14 C14            3.4002    -5.5573    -4.3230 C.ar    
  15 C15            4.1277    -4.8854    -3.3584 C.ar    
  16 C16            3.7361    -3.6251    -2.9492 C.ar    
  17 C17            0.6493    -3.0805    -5.0675 C.3     
  18 F18            0.0902    -3.9484    -6.0117 F       
  19 F19           -0.2856    -2.8235    -4.0591 F       
  20 F20            1.0048    -1.8796    -5.6910 F       
  21 H21            1.0327     2.2557    -0.0734 H       
  22 H22           -0.4943     2.2712    -0.9878 H       
  23 H23           -0.5225     2.2827     0.7919 H       
  24 H24            2.4878     0.0121    -0.2242 H       
  25 H25            3.4038    -1.9574    -1.3594 H       
  26 H26            4.7137     0.0774    -1.7473 H       
  27 H27            4.2221    -0.1739    -3.4783 H       
  28 H28            2.0982     1.0015    -3.1405 H       
  29 H29            2.9962     1.8252    -1.7928 H       
  30 H30            1.7084    -5.5002    -5.6290 H       
  31 H31            3.7106    -6.5403    -4.6450 H       
  32 H32            5.0056    -5.3439    -2.9279 H       
  33 H33            4.3075    -3.0986    -2.1991 H       
@<TRIPOS>BOND
   1    1    2 1
   2    1   21 1
   3    1   22 1
   4    1   23 1
   5    2    3 2
   6    2    4 2
   7    2    5 1
   8    5    6 1
   9    6    7 1
  10    6    9 1
  11    6   24 1
  12    7    8 1
  13    7   10 1
  14    7   25 1
  15    8    9 1
  16    8   26 1
  17    8   27 1
  18    9   28 1
  19    9   29 1
  20   10   11 1
  21   11   12 ar
  22   11   16 ar
  23   12   13 ar
  24   12   17 1
  25   13   14 ar
  26   13   30 1
  27   14   15 ar
  28   14   31 1
  29   15   16 ar
  30   15   32 1
  31   16   33 1
  32   17   18 1
  33   17   19 1
  34   17   20 1

#	End of record

