#	Name: ASD01148339
#	Creating user name:	WinNT
#	Creation time:	15. 06. 2019 19:02

#	Modifying user name:	WinNT
#	Modification time:	15. 06. 2019 19:02

#	Program:	/corina/corina34_cracker 3.40 0067  02.08.2006

@<TRIPOS>MOLECULE
ASD01148339
  58   61    0    0    0
SMALL
NO_CHARGES


@<TRIPOS>ATOM
   1 C1            -0.0221     1.5726     0.1297 C.ar    
   2 C2            -0.0162     0.1893     0.1523 C.ar    
   3 C3             1.1851    -0.4970     0.1463 C.ar    
   4 C4             2.3785     0.1996     0.1177 C.ar    
   5 C5             2.3720     1.5818     0.0951 C.ar    
   6 C6             1.1720     2.2681     0.1011 C.ar    
   7 C7             3.6735     2.3408     0.0644 C.3     
   8 O8             4.6882     1.5970    -0.6404 O.3     
   9 C9             3.5524     3.6130    -0.8080 C.3     
  10 C10            4.0452     3.1337    -2.1601 C.2     
  11 N11            4.6607     2.0115    -1.9919 N.2     
  12 C12            3.8539     3.8307    -3.4471 C.ar    
  13 C13            4.3619     3.2756    -4.6247 C.ar    
  14 C14            3.1600     5.0426    -3.4888 C.ar    
  15 C15            2.9815     5.6926    -4.6891 C.ar    
  16 C16            3.4944     5.1405    -5.8655 C.ar    
  17 C17            4.1836     3.9254    -5.8246 C.ar    
  18 C18            3.3029     5.8380    -7.1534 C.2     
  19 O19            4.2630     6.2768    -7.7554 O.2     
  20 N20            2.0634     5.9877    -7.6610 N.am    
  21 C21            4.7372     3.3300    -7.0935 C.3     
  22 C22            4.1346     2.6891     1.4811 C.3     
  23 F23            4.3017     1.5127     2.2196 F       
  24 F24            5.3508     3.3778     1.4196 F       
  25 F25            3.1730     3.4953     2.0995 F       
  26 Cl26          -1.5155    -0.6850     0.1888 Cl      
  27 C27            1.8583     6.7921    -8.8681 C.3     
  28 C28            1.9771     5.9111   -10.0850 C.ar    
  29 N29            3.1665     5.6668   -10.5991 N.ar    
  30 C30            1.0125     5.3974    -7.0580 C.2     
  31 C31            3.3185     4.9021   -11.6628 C.ar    
  32 C32            2.2253     4.3256   -12.2809 C.ar    
  33 C33            0.9581     4.5597   -11.7688 C.ar    
  34 C34            0.8384     5.3638   -10.6459 C.ar    
  35 O35            1.1690     4.8014    -6.0112 O.2     
  36 O36           -0.2104     5.4682    -7.6157 O.3     
  37 C37           -1.2956     4.8093    -6.9110 C.3     
  38 H38           -0.9596     2.1088     0.1299 H       
  39 H39            1.1903    -1.5768     0.1643 H       
  40 H40            3.3163    -0.3360     0.1133 H       
  41 H41            1.1675     3.3480     0.0835 H       
  42 H42            2.5153     3.9431    -0.8689 H       
  43 H43            4.1907     4.4083    -0.4231 H       
  44 H44            4.8949     2.3368    -4.5930 H       
  45 H45            2.7632     5.4692    -2.5794 H       
  46 H46            2.4448     6.6293    -4.7214 H       
  47 H47            5.7176     3.7598    -7.2989 H       
  48 H48            4.8309     2.2503    -6.9775 H       
  49 H49            4.0635     3.5494    -7.9218 H       
  50 H50            0.8659     7.2419    -8.8407 H       
  51 H51            2.6123     7.5779    -8.9135 H       
  52 H52            4.3088     4.7247   -12.0555 H       
  53 H53            2.3562     3.7009   -13.1522 H       
  54 H54            0.0855     4.1226   -12.2313 H       
  55 H55           -0.1329     5.5671   -10.2199 H       
  56 H56           -1.4011     5.2450    -5.9175 H       
  57 H57           -2.2237     4.9427    -7.4668 H       
  58 H58           -1.0765     3.7454    -6.8198 H       
@<TRIPOS>BOND
   1    1    2 ar
   2    1    6 ar
   3    1   38 1
   4    2    3 ar
   5    2   26 1
   6    3    4 ar
   7    3   39 1
   8    4    5 ar
   9    4   40 1
  10    5    6 ar
  11    5    7 1
  12    6   41 1
  13    7    8 1
  14    7    9 1
  15    7   22 1
  16    8   11 1
  17    9   10 1
  18    9   42 1
  19    9   43 1
  20   10   11 2
  21   10   12 1
  22   12   13 ar
  23   12   14 ar
  24   13   17 ar
  25   13   44 1
  26   14   15 ar
  27   14   45 1
  28   15   16 ar
  29   15   46 1
  30   16   17 ar
  31   16   18 1
  32   17   21 1
  33   18   19 2
  34   18   20 am
  35   20   27 1
  36   20   30 am
  37   21   47 1
  38   21   48 1
  39   21   49 1
  40   22   23 1
  41   22   24 1
  42   22   25 1
  43   27   28 1
  44   27   50 1
  45   27   51 1
  46   28   29 ar
  47   28   34 ar
  48   29   31 ar
  49   30   35 2
  50   30   36 1
  51   31   32 ar
  52   31   52 1
  53   32   33 ar
  54   32   53 1
  55   33   34 ar
  56   33   54 1
  57   34   55 1
  58   36   37 1
  59   37   56 1
  60   37   57 1
  61   37   58 1

#	End of record

