#	Name: ASD05213007
#	Creating user name:	WinNT
#	Creation time:	15. 06. 2019 20:57

#	Modifying user name:	WinNT
#	Modification time:	15. 06. 2019 20:57

#	Program:	/corina/corina34_cracker 3.40 0067  02.08.2006

@<TRIPOS>MOLECULE
ASD05213007
  33   35    0    0    0
SMALL
NO_CHARGES


@<TRIPOS>ATOM
   1 C1            -0.0184     1.5028     0.0103 C.2     
   2 C2             0.0021    -0.0041     0.0020 C.3     
   3 C3            -0.7948    -0.5237     1.1708 C.2     
   4 N4            -0.9162    -1.8516     1.3665 N.am    
   5 C5            -1.6494    -2.3297     2.4419 C.2     
   6 S6            -2.4447    -1.3479     3.5859 S.3     
   7 C7            -3.0429    -2.7361     4.4769 C.2     
   8 C8            -2.6434    -3.8663     3.9114 C.2     
   9 C9            -1.8391    -3.6569     2.7276 C.2     
  10 C10           -1.2785    -4.7479     1.9243 C.2     
  11 O11           -0.6102    -4.4965     0.9385 O.2     
  12 N12           -1.5031    -6.0290     2.2773 N.am    
  13 O13           -1.3270     0.2531     1.9352 O.2     
  14 C14            1.1044     2.2274     0.0035 C.2     
  15 S15            0.6613     3.9332     0.0169 S.3     
  16 C16           -1.0427     3.4860     0.0308 C.2     
  17 N17           -1.1412     2.1850     0.0191 N.2     
  18 C18           -2.1729     4.4280     0.0467 C.2     
  19 C19           -2.0663     5.7748     0.0525 C.2     
  20 C20           -3.2692     6.4470     0.0673 C.2     
  21 C21           -4.3549     5.6666     0.0736 C.2     
  22 S22           -3.8726     3.9756     0.0535 S.3     
  23 H23           -0.4361    -0.3683    -0.9272 H       
  24 H24            1.0315    -0.3539     0.0799 H       
  25 H25           -0.4906    -2.4729     0.7552 H       
  26 H26           -3.6533    -2.6776     5.3659 H       
  27 H27           -2.8958    -4.8444     4.2936 H       
  28 H28           -2.0357    -6.2293     3.0629 H       
  29 H29           -1.1322    -6.7507     1.7459 H       
  30 H30            2.1106     1.8352    -0.0080 H       
  31 H31           -1.1139     6.2841     0.0464 H       
  32 H32           -3.3305     7.5253     0.0737 H       
  33 H33           -5.3749     6.0215     0.0851 H       
@<TRIPOS>BOND
   1    1    2 1
   2    1   14 2
   3    1   17 1
   4    2    3 1
   5    2   23 1
   6    2   24 1
   7    3    4 am
   8    3   13 2
   9    4    5 1
  10    4   25 1
  11    5    6 1
  12    5    9 2
  13    6    7 1
  14    7    8 2
  15    7   26 1
  16    8    9 1
  17    8   27 1
  18    9   10 1
  19   10   11 2
  20   10   12 am
  21   12   28 1
  22   12   29 1
  23   14   15 1
  24   14   30 1
  25   15   16 1
  26   16   17 2
  27   16   18 1
  28   18   19 2
  29   18   22 1
  30   19   20 1
  31   19   31 1
  32   20   21 2
  33   20   32 1
  34   21   22 1
  35   21   33 1

#	End of record

