#	Name: ASD03331548
#	Creating user name:	WinNT
#	Creation time:	15. 06. 2019 20:39

#	Modifying user name:	WinNT
#	Modification time:	15. 06. 2019 20:39

#	Program:	/corina/corina34_cracker 3.40 0067  02.08.2006

@<TRIPOS>MOLECULE
ASD03331548
  64   66    0    0    0
SMALL
NO_CHARGES


@<TRIPOS>ATOM
   1 C1            -0.2233     2.8107    -2.1207 C.ar    
   2 C2            -1.1887     3.8048    -2.2825 C.ar    
   3 C3             1.1489     3.1693    -1.6993 C.2     
   4 N4             1.7197     4.4051    -1.8125 N.pl3   
   5 C5             2.9802     4.3148    -1.3285 C.2     
   6 C6             3.1622     3.0310    -0.9103 C.2     
   7 N7             2.0179     2.3547    -1.1496 N.2     
   8 C8             1.0834     5.6124    -2.3473 C.3     
   9 C9             2.1541     6.5385    -2.9284 C.3     
  10 C10            2.6693     7.4813    -1.8418 C.3     
  11 C11            3.3126     6.6871    -0.7091 C.3     
  12 C12            3.9853     5.4354    -1.2811 C.3     
  13 C13            4.3863     2.4804    -0.3020 C.2     
  14 O14            5.3561     3.1947    -0.1337 O.2     
  15 N15            4.4310     1.1852     0.0680 N.am    
  16 C16            5.6478     0.6377     0.6728 C.3     
  17 C17            5.7009    -0.8497     0.4366 C.2     
  18 C18            4.3617     0.3412     2.7942 C.3     
  19 N19            6.8910    -1.4724     0.3258 N.am    
  20 O20            4.6726    -1.4864     0.3461 O.2     
  21 C21            5.6388     0.9151     2.1774 C.3     
  22 C22            6.8586     0.2563     2.8248 C.3     
  23 C23            5.6873     2.4253     2.4179 C.3     
  24 C24            6.9434    -2.8989    -0.0041 C.3     
  25 C25           -2.4667     3.4639    -2.6752 C.ar    
  26 C26           -2.7918     2.1395    -2.9081 C.ar    
  27 C27           -1.8390     1.1490    -2.7494 C.ar    
  28 C28           -0.5588     1.4765    -2.3524 C.ar    
  29 C29            3.7056     8.4312    -2.4458 C.3     
  30 C30            1.5018     8.2995    -1.2865 C.3     
  31 H31           -0.9364     4.8390    -2.1003 H       
  32 H32            0.3787     5.3349    -3.1312 H       
  33 H33            0.5523     6.1280    -1.5472 H       
  34 H34            2.9811     5.9407    -3.3113 H       
  35 H35            1.7244     7.1235    -3.7416 H       
  36 H36            4.0592     7.3051    -0.2104 H       
  37 H37            2.5469     6.3923     0.0084 H       
  38 H38            4.8220     5.1480    -0.6444 H       
  39 H39            4.3467     5.6438    -2.2881 H       
  40 H40            3.6575     0.6154    -0.0662 H       
  41 H41            6.5213     1.1086     0.2217 H       
  42 H42            4.3272    -0.7347     2.6229 H       
  43 H43            4.3553     0.5388     3.8661 H       
  44 H44            3.4928     0.8106     2.3330 H       
  45 H45            7.7128    -0.9762     0.4645 H       
  46 H46            7.7659     0.6136     2.3377 H       
  47 H47            6.8901     0.5117     3.8840 H       
  48 H48            6.7887    -0.8258     2.7139 H       
  49 H49            4.8183     2.8947     1.9566 H       
  50 H50            5.6808     2.6230     3.4898 H       
  51 H51            6.5971     2.8342     1.9784 H       
  52 H52            7.9830    -3.2232    -0.0499 H       
  53 H53            6.4184    -3.4687     0.7626 H       
  54 H54            6.4678    -3.0660    -0.9706 H       
  55 H55           -3.2150     4.2325    -2.8007 H       
  56 H56           -3.7937     1.8776    -3.2146 H       
  57 H57           -2.0990     0.1169    -2.9324 H       
  58 H58            0.1843     0.7025    -2.2293 H       
  59 H59            3.2440     9.0123    -3.2441 H       
  60 H60            4.0749     9.1050    -1.6727 H       
  61 H61            4.5360     7.8529    -2.8508 H       
  62 H62            0.8048     7.6365    -0.7739 H       
  63 H63            1.8802     9.0422    -0.5842 H       
  64 H64            0.9886     8.8027    -2.1060 H       
@<TRIPOS>BOND
   1    1    2 ar
   2    1    3 1
   3    1   28 ar
   4    2   25 ar
   5    2   31 1
   6    3    4 1
   7    3    7 2
   8    4    5 1
   9    4    8 1
  10    5    6 2
  11    5   12 1
  12    6    7 1
  13    6   13 1
  14    8    9 1
  15    8   32 1
  16    8   33 1
  17    9   10 1
  18    9   34 1
  19    9   35 1
  20   10   11 1
  21   10   29 1
  22   10   30 1
  23   11   12 1
  24   11   36 1
  25   11   37 1
  26   12   38 1
  27   12   39 1
  28   13   14 2
  29   13   15 am
  30   15   16 1
  31   15   40 1
  32   16   21 1
  33   16   17 1
  34   16   41 1
  35   17   19 am
  36   17   20 2
  37   18   21 1
  38   18   42 1
  39   18   43 1
  40   18   44 1
  41   19   24 1
  42   19   45 1
  43   21   22 1
  44   21   23 1
  45   22   46 1
  46   22   47 1
  47   22   48 1
  48   23   49 1
  49   23   50 1
  50   23   51 1
  51   24   52 1
  52   24   53 1
  53   24   54 1
  54   25   26 ar
  55   25   55 1
  56   26   27 ar
  57   26   56 1
  58   27   28 ar
  59   27   57 1
  60   28   58 1
  61   29   59 1
  62   29   60 1
  63   29   61 1
  64   30   62 1
  65   30   63 1
  66   30   64 1

#	End of record

