#	Name: ASD03730958
#	Creating user name:	WinNT
#	Creation time:	15. 06. 2019 20:45

#	Modifying user name:	WinNT
#	Modification time:	15. 06. 2019 20:45

#	Program:	/corina/corina34_cracker 3.40 0067  02.08.2006

@<TRIPOS>MOLECULE
ASD03730958
  57   63    0    0    0
SMALL
NO_CHARGES


@<TRIPOS>ATOM
   1 C1            -0.0177     1.4744     0.0021 C.2     
   2 C2             0.0031    -0.0034    -0.0052 C.ar    
   3 C3             1.2201    -0.6874    -0.0288 C.ar    
   4 C4             1.2324    -2.0666    -0.0350 C.ar    
   5 C5             0.0422    -2.7724    -0.0183 C.ar    
   6 C6            -1.1671    -2.1009     0.0048 C.ar    
   7 C7            -1.1936    -0.7214     0.0174 C.ar    
   8 O8             1.0261     2.0970    -0.0126 O.2     
   9 N9            -1.1942     2.1317     0.0193 N.am    
  10 C10           -0.1044     5.5078     0.4365 C.ar    
  11 N11           -0.0889     4.1945     0.3298 N.ar    
  12 C12           -1.2148     3.5165     0.1318 C.ar    
  13 C13           -2.4179     4.2174     0.0383 C.ar    
  14 C14           -2.3859     5.5937     0.1562 C.ar    
  15 N15           -1.2233     6.1987     0.3528 N.ar    
  16 C16            2.5450    -2.8066    -0.0605 C.3     
  17 O17           -0.8466    -3.3177     6.2583 O.3     
  18 C18           -0.8769    -3.5712     7.6753 C.3     
  19 O19            0.0302    -4.6764     7.8447 O.3     
  20 C20            0.9203    -4.5805     6.8135 C.ar    
  21 C21            0.3801    -3.7457     5.8379 C.ar    
  22 C22            2.1685    -5.1464     6.6258 C.ar    
  23 C23            2.8918    -4.8895     5.4650 C.ar    
  24 C24            2.3382    -4.0606     4.4939 C.ar    
  25 C25            1.0965    -3.4899     4.6808 C.ar    
  26 O26            4.1295    -5.3265     5.0943 O.3     
  27 C27            3.3314    -4.0005     3.3644 C.3     
  28 C28            4.2843    -5.1639     3.6712 C.3     
  29 N29            2.9938    -3.0524     1.3122 N.am    
  30 C30            2.6755    -4.1531     2.0223 C.2     
  31 C31            4.0526    -2.6866     3.3076 C.ar    
  32 C32            4.8307    -1.9888     4.2042 C.ar    
  33 C33            5.3731    -0.7672     3.8471 C.ar    
  34 C34            5.1313    -0.2484     2.5880 C.ar    
  35 C35            4.3518    -0.9430     1.6868 C.ar    
  36 C36            3.8021    -2.1737     2.0375 C.ar    
  37 O37            1.9934    -5.0843     1.6500 O.2     
  38 H38            2.1497    -0.1378    -0.0426 H       
  39 H39            0.0574    -3.8523    -0.0235 H       
  40 H40           -2.0925    -2.6577     0.0170 H       
  41 H41           -2.1382    -0.1984     0.0403 H       
  42 H42           -2.0266     1.6381    -0.0468 H       
  43 H43            0.8253     6.0320     0.6017 H       
  44 H44           -3.3506     3.6972    -0.1227 H       
  45 H45           -3.2972     6.1694     0.0887 H       
  46 H46            2.4156    -3.7581    -0.5763 H       
  47 H47            3.2897    -2.2075    -0.5845 H       
  48 H48           -0.5260    -2.6996     8.2278 H       
  49 H49           -1.8819    -3.8484     7.9933 H       
  50 H50            2.5845    -5.7920     7.3851 H       
  51 H51            0.6818    -2.8422     3.9227 H       
  52 H52            5.3116    -4.8990     3.4213 H       
  53 H53            3.9764    -6.0661     3.1427 H       
  54 H54            5.0181    -2.3958     5.1869 H       
  55 H55            5.9842    -0.2201     4.5497 H       
  56 H56            5.5546     0.7053     2.3093 H       
  57 H57            4.1670    -0.5311     0.7056 H       
@<TRIPOS>BOND
   1    1    2 1
   2    1    8 2
   3    1    9 am
   4    2    3 ar
   5    2    7 ar
   6    3    4 ar
   7    3   38 1
   8    4    5 ar
   9    4   16 1
  10    5    6 ar
  11    5   39 1
  12    6    7 ar
  13    6   40 1
  14    7   41 1
  15    9   12 1
  16    9   42 1
  17   10   11 ar
  18   10   15 ar
  19   10   43 1
  20   11   12 ar
  21   12   13 ar
  22   13   14 ar
  23   13   44 1
  24   14   15 ar
  25   14   45 1
  26   16   29 1
  27   16   46 1
  28   16   47 1
  29   17   18 1
  30   17   21 1
  31   18   19 1
  32   18   48 1
  33   18   49 1
  34   19   20 1
  35   20   21 ar
  36   20   22 ar
  37   21   25 ar
  38   22   23 ar
  39   22   50 1
  40   23   24 ar
  41   23   26 1
  42   24   25 ar
  43   24   27 1
  44   25   51 1
  45   26   28 1
  46   27   28 1
  47   27   30 1
  48   27   31 1
  49   28   52 1
  50   28   53 1
  51   29   30 am
  52   29   36 1
  53   30   37 2
  54   31   32 ar
  55   31   36 ar
  56   32   33 ar
  57   32   54 1
  58   33   34 ar
  59   33   55 1
  60   34   35 ar
  61   34   56 1
  62   35   36 ar
  63   35   57 1

#	End of record

