#	Name: ASD03731888
#	Creating user name:	WinNT
#	Creation time:	15. 06. 2019 20:46

#	Modifying user name:	WinNT
#	Modification time:	15. 06. 2019 20:46

#	Program:	/corina/corina34_cracker 3.40 0067  02.08.2006

@<TRIPOS>MOLECULE
ASD03731888
  43   45    0    0    0
SMALL
NO_CHARGES


@<TRIPOS>ATOM
   1 C1             0.3395     1.4458    -0.0688 C.2     
   2 C2             0.2936    -0.0240    -0.1540 C.ar    
   3 C3             1.4813    -0.7665    -0.1337 C.ar    
   4 C4             1.4322    -2.1434    -0.2134 C.ar    
   5 C5             0.2080    -2.7916    -0.3138 C.ar    
   6 C6            -0.9742    -2.0571    -0.3347 C.ar    
   7 C7            -0.9362    -0.6833    -0.2495 C.ar    
   8 O8             1.4090     2.0163     0.0192 O.2     
   9 O9            -0.8043     2.1583    -0.0941 O.3     
  10 F10            2.6722    -0.1360    -0.0369 F       
  11 O11            0.1643    -4.1457    -0.3924 O.3     
  12 C12            1.3300    -4.8307    -0.2553 C.ar    
  13 C13            1.9897    -5.3094    -1.3775 C.ar    
  14 C14            3.1782    -6.0076    -1.2349 C.ar    
  15 C15            3.7059    -6.2264     0.0310 C.ar    
  16 C16            3.0462    -5.7486     1.1478 C.ar    
  17 C17            1.8639    -5.0467     1.0071 C.ar    
  18 O18            3.8265    -6.4782    -2.3329 O.3     
  19 C19            3.2258    -6.2167    -3.6028 C.3     
  20 F20            3.1194    -4.8348    -3.7927 F       
  21 F21            4.0185    -6.7670    -4.6158 F       
  22 F22            1.9514    -6.7925    -3.6433 F       
  23 Cl23           5.1947    -7.1010     0.2109 Cl      
  24 Cl24          -2.5000    -2.8752    -0.4617 Cl      
  25 C25           -0.6883     3.5124    -0.0783 C.ar    
  26 C26           -0.3193     4.1916    -1.2304 C.ar    
  27 C27           -0.2025     5.5680    -1.2119 C.ar    
  28 C28           -0.4525     6.2686    -0.0464 C.ar    
  29 C29           -0.8199     5.5939     1.1033 C.ar    
  30 C30           -0.9441     4.2182     1.0884 C.ar    
  31 C31           -0.3238     7.7700    -0.0289 C.3     
  32 H32            2.3468    -2.7175    -0.1979 H       
  33 H33           -1.8547    -0.1152    -0.2611 H       
  34 H34            1.5775    -5.1385    -2.3610 H       
  35 H35            3.4577    -5.9199     2.1316 H       
  36 H36            1.3529    -4.6699     1.8807 H       
  37 H37           -0.1233     3.6448    -2.1409 H       
  38 H38            0.0846     6.0972    -2.1085 H       
  39 H39           -1.0143     6.1434     2.0125 H       
  40 H40           -1.2355     3.6921     1.9855 H       
  41 H41           -1.2819     8.2198    -0.2896 H       
  42 H42           -0.0278     8.0977     0.9676 H       
  43 H43            0.4312     8.0784    -0.7520 H       
@<TRIPOS>BOND
   1    1    2 1
   2    1    8 2
   3    1    9 1
   4    2    3 ar
   5    2    7 ar
   6    3    4 ar
   7    3   10 1
   8    4    5 ar
   9    4   32 1
  10    5    6 ar
  11    5   11 1
  12    6    7 ar
  13    6   24 1
  14    7   33 1
  15    9   25 1
  16   11   12 1
  17   12   13 ar
  18   12   17 ar
  19   13   14 ar
  20   13   34 1
  21   14   15 ar
  22   14   18 1
  23   15   16 ar
  24   15   23 1
  25   16   17 ar
  26   16   35 1
  27   17   36 1
  28   18   19 1
  29   19   20 1
  30   19   21 1
  31   19   22 1
  32   25   26 ar
  33   25   30 ar
  34   26   27 ar
  35   26   37 1
  36   27   28 ar
  37   27   38 1
  38   28   29 ar
  39   28   31 1
  40   29   30 ar
  41   29   39 1
  42   30   40 1
  43   31   41 1
  44   31   42 1
  45   31   43 1

#	End of record

