#	Name: ASD03330967
#	Creating user name:	WinNT
#	Creation time:	15. 06. 2019 20:38

#	Modifying user name:	WinNT
#	Modification time:	15. 06. 2019 20:38

#	Program:	/corina/corina34_cracker 3.40 0067  02.08.2006

@<TRIPOS>MOLECULE
ASD03330967
  50   52    0    0    0
SMALL
NO_CHARGES


@<TRIPOS>ATOM
   1 N1            -0.0164     1.3557     0.0652 N.pl3   
   2 C2             0.0029    -0.0038     0.0363 C.2     
   3 C3             1.2396    -0.8638     0.0224 C.3     
   4 N4             2.1703    -0.3867     1.0572 N.3     
   5 C5             3.0625     0.6482     0.5315 C.3     
   6 C6             2.3511     1.5033    -0.5132 C.3     
   7 C7             1.1626     2.2241     0.1289 C.3     
   8 C8            -1.3235     1.7465     0.0361 C.2     
   9 N9            -2.0807     0.6747     0.0088 N.2     
  10 C10           -1.2922    -0.4229     0.0110 C.2     
  11 C11           -1.7519    -1.8226    -0.0111 C.2     
  12 O12           -0.9411    -2.7291    -0.0074 O.2     
  13 N13           -3.0709    -2.0984    -0.0353 N.am    
  14 C14           -1.8064     3.1442     0.0359 C.ar    
  15 C15           -2.7907     3.5459    -0.8712 C.ar    
  16 C16           -3.2386     4.8530    -0.8666 C.ar    
  17 C17           -2.7135     5.7643     0.0344 C.ar    
  18 C18           -1.7355     5.3706     0.9370 C.ar    
  19 C19           -1.2851     4.0651     0.9453 C.ar    
  20 F20           -1.2268     6.2648     1.8127 F       
  21 F21           -3.1545     7.0413     0.0344 F       
  22 F22           -3.3031     2.6580    -1.7512 F       
  23 C23            2.9368    -1.5012     1.6302 C.3     
  24 C24           -3.5280    -3.4902    -0.0572 C.3     
  25 C25           -3.0222    -4.2128     1.1929 C.3     
  26 C26           -5.0574    -3.5243    -0.0823 C.3     
  27 C27           -2.9818    -4.1868    -1.3051 C.3     
  28 H28            0.9660    -1.8987     0.2277 H       
  29 H29            1.7174    -0.7992    -0.9551 H       
  30 H30            3.3934     1.2860     1.3512 H       
  31 H31            3.9312     0.1740     0.0748 H       
  32 H32            3.0476     2.2395    -0.9144 H       
  33 H33            1.9942     0.8653    -1.3217 H       
  34 H34            0.9630     3.1498    -0.4108 H       
  35 H35            1.3927     2.4503     1.1700 H       
  36 H36           -3.7176    -1.3755    -0.0382 H       
  37 H37           -3.9992     5.1647    -1.5671 H       
  38 H38           -0.5272     3.7588     1.6511 H       
  39 H39            3.4551    -2.0336     0.8327 H       
  40 H40            3.6658    -1.1131     2.3415 H       
  41 H41            2.2582    -2.1840     2.1415 H       
  42 H42           -3.4113    -3.7165     2.0820 H       
  43 H43           -3.3622    -5.2483     1.1766 H       
  44 H44           -1.9326    -4.1885     1.2108 H       
  45 H45           -5.4178    -3.0095    -0.9729 H       
  46 H46           -5.3975    -4.5598    -0.0986 H       
  47 H47           -5.4466    -3.0280     0.8067 H       
  48 H48           -1.8922    -4.1624    -1.2872 H       
  49 H49           -3.3218    -5.2222    -1.3214 H       
  50 H50           -3.3421    -3.6719    -2.1957 H       
@<TRIPOS>BOND
   1    1    2 1
   2    1    7 1
   3    1    8 1
   4    2    3 1
   5    2   10 2
   6    3    4 1
   7    3   28 1
   8    3   29 1
   9    4    5 1
  10    4   23 1
  11    5    6 1
  12    5   30 1
  13    5   31 1
  14    6    7 1
  15    6   32 1
  16    6   33 1
  17    7   34 1
  18    7   35 1
  19    8    9 2
  20    8   14 1
  21    9   10 1
  22   10   11 1
  23   11   12 2
  24   11   13 am
  25   13   24 1
  26   13   36 1
  27   14   15 ar
  28   14   19 ar
  29   15   16 ar
  30   15   22 1
  31   16   17 ar
  32   16   37 1
  33   17   18 ar
  34   17   21 1
  35   18   19 ar
  36   18   20 1
  37   19   38 1
  38   23   39 1
  39   23   40 1
  40   23   41 1
  41   24   25 1
  42   24   27 1
  43   24   26 1
  44   25   42 1
  45   25   43 1
  46   25   44 1
  47   26   45 1
  48   26   46 1
  49   26   47 1
  50   27   48 1
  51   27   49 1
  52   27   50 1

#	End of record

