#	Name: ASD01903127
#	Creating user name:	WinNT
#	Creation time:	15. 06. 2019 19:54

#	Modifying user name:	WinNT
#	Modification time:	15. 06. 2019 19:54

#	Program:	/corina/corina34_cracker 3.40 0067  02.08.2006

@<TRIPOS>MOLECULE
ASD01903127
  32   34    0    0    0
SMALL
NO_CHARGES


@<TRIPOS>ATOM
   1 N1            -0.0427     1.3989    -0.0020 N.am    
   2 C2            -0.0172    -0.0043    -0.0067 C.ar    
   3 C3            -0.2420    -0.6992    -1.1886 C.ar    
   4 C4            -0.2165    -2.0804    -1.1930 C.ar    
   5 C5             0.0340    -2.7737    -0.0160 C.ar    
   6 C6             0.2587    -2.0780     1.1654 C.ar    
   7 C7             0.2383    -0.6978     1.1685 C.ar    
   8 C8             1.0476     2.1441    -0.2217 C.2     
   9 C9             0.6733     3.6083    -0.1468 C.3     
  10 C10           -0.8384     3.5798     0.1575 C.3     
  11 C11           -1.1605     2.1025     0.2169 C.2     
  12 O12            2.1588     1.7139    -0.4449 O.2     
  13 O13           -2.2557     1.6308     0.4353 O.2     
  14 Cl14          -0.5556     0.1681    -2.6594 Cl      
  15 N15            0.0595    -4.1726    -0.0199 N.am    
  16 C16            0.5514    -4.8347    -1.0858 C.2     
  17 O17            0.8944    -4.2204    -2.0780 O.2     
  18 C18            0.6735    -6.3013    -1.0492 C.2     
  19 S19            1.2936    -7.3098    -2.3529 S.3     
  20 C20            1.0407    -8.7096    -1.4026 C.2     
  21 C21            0.5282    -8.3480    -0.2159 C.2     
  22 N22            0.3448    -7.0655    -0.0427 N.2     
  23 H23           -0.3915    -2.6210    -2.1115 H       
  24 H24            0.4534    -2.6171     2.0807 H       
  25 H25            0.4130    -0.1574     2.0871 H       
  26 H26            1.2173     4.1026     0.6580 H       
  27 H27            0.8636     4.1021    -1.0997 H       
  28 H28           -1.0464     4.0600     1.1137 H       
  29 H29           -1.4002     4.0595    -0.6440 H       
  30 H30           -0.2767    -4.6660     0.7446 H       
  31 H31            1.2583    -9.7222    -1.7086 H       
  32 H32            0.2865    -9.0709     0.5493 H       
@<TRIPOS>BOND
   1    1    2 1
   2    1    8 am
   3    1   11 am
   4    2    3 ar
   5    2    7 ar
   6    3    4 ar
   7    3   14 1
   8    4    5 ar
   9    4   23 1
  10    5    6 ar
  11    5   15 1
  12    6    7 ar
  13    6   24 1
  14    7   25 1
  15    8    9 1
  16    8   12 2
  17    9   10 1
  18    9   26 1
  19    9   27 1
  20   10   11 1
  21   10   28 1
  22   10   29 1
  23   11   13 2
  24   15   16 am
  25   15   30 1
  26   16   17 2
  27   16   18 1
  28   18   19 1
  29   18   22 2
  30   19   20 1
  31   20   21 2
  32   20   31 1
  33   21   22 1
  34   21   32 1

#	End of record

