#	Name: ASD01150346
#	Creating user name:	WinNT
#	Creation time:	15. 06. 2019 19:04

#	Modifying user name:	WinNT
#	Modification time:	15. 06. 2019 19:04

#	Program:	/corina/corina34_cracker 3.40 0067  02.08.2006

@<TRIPOS>MOLECULE
ASD01150346
  64   66    0    0    0
SMALL
NO_CHARGES


@<TRIPOS>ATOM
   1 N1            -0.0169     1.3925     0.0097 N.pl3   
   2 C2             0.0021    -0.0041     0.0020 C.2     
   3 C3            -1.3278    -0.4052     0.0134 C.2     
   4 N4            -2.0856     0.6946     0.0270 N.2     
   5 C5            -1.3233     1.7681     0.0302 C.2     
   6 C6             1.1393    -0.8369    -0.0144 C.2     
   7 C7             1.0965     2.2427     0.0036 C.ar    
   8 C8             1.3308     3.0744    -1.0833 C.ar    
   9 C9             2.4293     3.9116    -1.0863 C.ar    
  10 C10            3.2954     3.9220    -0.0084 C.ar    
  11 C11            3.0648     3.0949     1.0755 C.ar    
  12 C12            1.9648     2.2597     1.0870 C.ar    
  13 N13           -1.7778     3.0666     0.0433 N.3     
  14 C14           -3.2461     3.1105     0.0530 C.3     
  15 C15           -1.2214     3.8076     1.1832 C.3     
  16 O16            1.0073    -2.0475    -0.0195 O.2     
  17 O17            2.3750    -0.2923    -0.0246 O.3     
  18 C18            3.4820    -1.1958    -0.0411 C.3     
  19 C19            3.4079    -2.0703    -1.2943 C.3     
  20 C20            4.7891    -0.4007    -0.0506 C.3     
  21 C21            3.4342    -2.0837     1.2040 C.3     
  22 N22           -1.7879    -1.7175     0.0106 N.am    
  23 C23           -3.1123    -1.9673     0.0228 C.2     
  24 O24           -3.9027    -1.0476     0.0362 O.2     
  25 C25           -3.6109    -3.3894     0.0199 C.3     
  26 C26           -5.1408    -3.3935     0.0356 C.3     
  27 N27           -5.6256    -4.7759     0.0327 N.pl3   
  28 C28           -6.9981    -5.0348     0.0453 C.ar    
  29 C29           -7.4594    -6.3450     0.0426 C.ar    
  30 C30           -8.8171    -6.5974     0.0556 C.ar    
  31 C31           -9.7170    -5.5476     0.0713 C.ar    
  32 C32           -9.2612    -4.2420     0.0741 C.ar    
  33 C33           -7.9047    -3.9826     0.0665 C.ar    
  34 H34            0.6549     3.0665    -1.9256 H       
  35 H35            2.6122     4.5584    -1.9316 H       
  36 H36            4.1539     4.5772    -0.0132 H       
  37 H37            3.7432     3.1050     1.9158 H       
  38 H38            1.7850     1.6142     1.9340 H       
  39 H39           -3.6189     2.6007     0.9414 H       
  40 H40           -3.5785     4.1485     0.0633 H       
  41 H41           -3.6303     2.6147    -0.8385 H       
  42 H42           -0.1337     3.8186     1.1134 H       
  43 H43           -1.5968     4.8308     1.1695 H       
  44 H44           -1.5210     3.3231     2.1125 H       
  45 H45            3.4419    -1.4378    -2.1813 H       
  46 H46            4.2523    -2.7595    -1.3069 H       
  47 H47            2.4767    -2.6368    -1.2875 H       
  48 H48            4.8419     0.2224     0.8422 H       
  49 H49            5.6335    -1.0898    -0.0632 H       
  50 H50            4.8231     0.2319    -0.9376 H       
  51 H51            2.5030    -2.6502     1.2108 H       
  52 H52            4.2786    -2.7729     1.1914 H       
  53 H53            3.4870    -1.4607     2.0968 H       
  54 H54           -1.1557    -2.4531    -0.0001 H       
  55 H55           -3.2554    -3.8972    -0.8767 H       
  56 H56           -3.2371    -3.9074     0.9031 H       
  57 H57           -5.4963    -2.8857     0.9322 H       
  58 H58           -5.5146    -2.8755    -0.8477 H       
  59 H59           -4.9934    -5.5115     0.0220 H       
  60 H60           -6.7571    -7.1654     0.0299 H       
  61 H61           -9.1765    -7.6159     0.0531 H       
  62 H62          -10.7783    -5.7477     0.0811 H       
  63 H63           -9.9667    -3.4244     0.0864 H       
  64 H64           -7.5493    -2.9627     0.0690 H       
@<TRIPOS>BOND
   1    1    2 1
   2    1    7 1
   3    1    5 1
   4    2    3 2
   5    2    6 1
   6    3    4 1
   7    3   22 1
   8    4    5 2
   9    5   13 1
  10    6   16 2
  11    6   17 1
  12    7    8 ar
  13    7   12 ar
  14    8    9 ar
  15    8   34 1
  16    9   10 ar
  17    9   35 1
  18   10   11 ar
  19   10   36 1
  20   11   12 ar
  21   11   37 1
  22   12   38 1
  23   13   14 1
  24   13   15 1
  25   14   39 1
  26   14   40 1
  27   14   41 1
  28   15   42 1
  29   15   43 1
  30   15   44 1
  31   17   18 1
  32   18   19 1
  33   18   20 1
  34   18   21 1
  35   19   45 1
  36   19   46 1
  37   19   47 1
  38   20   48 1
  39   20   49 1
  40   20   50 1
  41   21   51 1
  42   21   52 1
  43   21   53 1
  44   22   23 am
  45   22   54 1
  46   23   24 2
  47   23   25 1
  48   25   26 1
  49   25   55 1
  50   25   56 1
  51   26   27 1
  52   26   57 1
  53   26   58 1
  54   27   28 1
  55   27   59 1
  56   28   29 ar
  57   28   33 ar
  58   29   30 ar
  59   29   60 1
  60   30   31 ar
  61   30   61 1
  62   31   32 ar
  63   31   62 1
  64   32   33 ar
  65   32   63 1
  66   33   64 1

#	End of record

