#	Name: ASD03930264
#	Creating user name:	WinNT
#	Creation time:	15. 06. 2019 20:47

#	Modifying user name:	WinNT
#	Modification time:	15. 06. 2019 20:47

#	Program:	/corina/corina34_cracker 3.40 0067  02.08.2006

@<TRIPOS>MOLECULE
ASD03930264
  45   48    0    0    0
SMALL
NO_CHARGES


@<TRIPOS>ATOM
   1 O1             2.1237     3.9814    -3.2195 O.3     
   2 C2             1.2459     3.2211    -4.0539 C.3     
   3 C3             1.8638     1.8430    -4.3335 C.3     
   4 C4             2.3347     1.2761    -3.0171 C.2     
   5 C5             2.4876     2.0350    -1.8986 C.2     
   6 C6             2.2048     3.5162    -1.8652 C.3     
   7 N7             2.6718     0.0087    -2.7046 N.pl3   
   8 N8             3.0418    -0.0115    -1.3502 N.2     
   9 C9             2.9293     1.2054    -0.8733 C.2     
  10 C10            3.2279     1.6312     0.5411 C.3     
  11 F11            3.7563     0.5485     1.2523 F       
  12 F12            4.1563     2.6776     0.5270 F       
  13 F13            2.0482     2.0627     1.1571 F       
  14 C14            2.6563    -1.0876    -3.5725 C.ar    
  15 C15            3.1257    -0.9486    -4.8740 C.ar    
  16 C16            3.1115    -2.0261    -5.7317 C.ar    
  17 C17            2.6250    -3.2599    -5.2926 C.ar    
  18 C18            2.1546    -3.3961    -3.9841 C.ar    
  19 C19            2.1767    -2.3156    -3.1303 C.ar    
  20 C20            2.6077    -4.4174    -6.2094 C.2     
  21 N21            2.2641    -4.2484    -7.5016 N.am    
  22 O22            2.9035    -5.5227    -5.7986 O.2     
  23 C23            2.3550    -5.3602    -8.4612 C.3     
  24 C24            1.0193    -5.4666    -9.2059 C.3     
  25 O25            0.6786    -4.1877    -9.7464 O.3     
  26 C26            0.4785    -3.1706    -8.7618 C.3     
  27 C27            1.7811    -2.9482    -7.9932 C.3     
  28 H28            0.2873     3.0936    -3.5511 H       
  29 H29            1.0937     3.7482    -4.9958 H       
  30 H30            1.1144     1.1843    -4.7725 H       
  31 H31            2.7087     1.9480    -5.0140 H       
  32 H32            3.0111     4.0338    -1.3454 H       
  33 H33            1.2591     3.6995    -1.3552 H       
  34 H34            3.5016     0.0055    -5.2128 H       
  35 H35            3.4756    -1.9172    -6.7426 H       
  36 H36            1.7776    -4.3483    -3.6415 H       
  37 H37            1.8132    -2.4201    -2.1187 H       
  38 H38            3.1576    -5.1664    -9.1728 H       
  39 H39            2.5530    -6.2901    -7.9281 H       
  40 H40            1.1102    -6.1913   -10.0150 H       
  41 H41            0.2411    -5.7883    -8.5137 H       
  42 H42            0.1803    -2.2435    -9.2515 H       
  43 H43           -0.3016    -3.4840    -8.0680 H       
  44 H44            1.6011    -2.2796    -7.1514 H       
  45 H45            2.5285    -2.5119    -8.6559 H       
@<TRIPOS>BOND
   1    1    2 1
   2    1    6 1
   3    2    3 1
   4    2   28 1
   5    2   29 1
   6    3    4 1
   7    3   30 1
   8    3   31 1
   9    4    5 2
  10    4    7 1
  11    5    6 1
  12    5    9 1
  13    6   32 1
  14    6   33 1
  15    7    8 1
  16    7   14 1
  17    8    9 2
  18    9   10 1
  19   10   11 1
  20   10   12 1
  21   10   13 1
  22   14   15 ar
  23   14   19 ar
  24   15   16 ar
  25   15   34 1
  26   16   17 ar
  27   16   35 1
  28   17   18 ar
  29   17   20 1
  30   18   19 ar
  31   18   36 1
  32   19   37 1
  33   20   21 am
  34   20   22 2
  35   21   23 1
  36   21   27 1
  37   23   24 1
  38   23   38 1
  39   23   39 1
  40   24   25 1
  41   24   40 1
  42   24   41 1
  43   25   26 1
  44   26   27 1
  45   26   42 1
  46   26   43 1
  47   27   44 1
  48   27   45 1

#	End of record

