#	Name: ASD01200125
#	Creating user name:	WinNT
#	Creation time:	15. 06. 2019 19:08

#	Modifying user name:	WinNT
#	Modification time:	15. 06. 2019 19:08

#	Program:	/corina/corina34_cracker 3.40 0067  02.08.2006

@<TRIPOS>MOLECULE
ASD01200125
  32   34    0    0    0
SMALL
NO_CHARGES


@<TRIPOS>ATOM
   1 C1            -0.0167     1.3792     0.0096 C.ar    
   2 C2             0.0021    -0.0041     0.0020 C.ar    
   3 C3             1.2087    -0.6842    -0.0132 C.ar    
   4 C4             2.3920     0.0166    -0.0208 C.ar    
   5 C5             2.3846     1.4137    -0.0132 C.ar    
   6 C6             1.1648     2.0919     0.0022 C.ar    
   7 C7             3.8409    -0.4021    -0.0369 C.3     
   8 N8             4.6266     0.8371    -0.0378 N.am    
   9 C9             3.7832     1.8837    -0.0241 C.2     
  10 O10            4.1240     3.0505    -0.0207 O.2     
  11 N11            4.1505    -1.1953     1.1602 N.3     
  12 C12            6.0892     0.9201    -0.0514 C.3     
  13 C13            6.5770     0.9561    -1.4768 C.ar    
  14 C14            6.7331     2.1679    -2.1234 C.ar    
  15 C15            7.1806     2.2010    -3.4309 C.ar    
  16 C16            7.4725     1.0223    -4.0916 C.ar    
  17 C17            7.3173    -0.1894    -3.4446 C.ar    
  18 C18            6.8739    -0.2222    -2.1357 C.ar    
  19 H19           -0.9607     1.9038     0.0169 H       
  20 H20           -0.9267    -0.5552     0.0083 H       
  21 H21            1.2202    -1.7641    -0.0188 H       
  22 H22            1.1457     3.1718     0.0078 H       
  23 H23            4.0535    -0.9810    -0.9357 H       
  24 H24            3.5965    -2.0381     1.1888 H       
  25 H25            5.1356    -1.4083     1.2080 H       
  26 H26            6.4065     1.8264     0.4643 H       
  27 H27            6.5072     0.0493     0.4538 H       
  28 H28            6.5050     3.0887    -1.6073 H       
  29 H29            7.3018     3.1477    -3.9364 H       
  30 H30            7.8214     1.0482    -5.1134 H       
  31 H31            7.5450    -1.1102    -3.9609 H       
  32 H32            6.7527    -1.1689    -1.6302 H       
@<TRIPOS>BOND
   1    1    2 ar
   2    1    6 ar
   3    1   19 1
   4    2    3 ar
   5    2   20 1
   6    3    4 ar
   7    3   21 1
   8    4    5 ar
   9    4    7 1
  10    5    6 ar
  11    5    9 1
  12    6   22 1
  13    7    8 1
  14    7   11 1
  15    7   23 1
  16    8    9 am
  17    8   12 1
  18    9   10 2
  19   11   24 1
  20   11   25 1
  21   12   13 1
  22   12   26 1
  23   12   27 1
  24   13   14 ar
  25   13   18 ar
  26   14   15 ar
  27   14   28 1
  28   15   16 ar
  29   15   29 1
  30   16   17 ar
  31   16   30 1
  32   17   18 ar
  33   17   31 1
  34   18   32 1

#	End of record

