#	Name: ASD01911739
#	Creating user name:	WinNT
#	Creation time:	15. 06. 2019 19:58

#	Modifying user name:	WinNT
#	Modification time:	15. 06. 2019 19:58

#	Program:	/corina/corina34_cracker 3.40 0067  02.08.2006

@<TRIPOS>MOLECULE
ASD01911739
  34   36    0    0    0
SMALL
NO_CHARGES


@<TRIPOS>ATOM
   1 N1             0.0344     1.1473    -0.6977 N.am    
   2 C2             0.0021    -0.0041     0.0020 C.2     
   3 C3            -1.2514    -0.7547     0.1206 C.2     
   4 C4            -1.3870    -2.1141     0.0311 C.2     
   5 S5            -2.8479    -0.0665     0.4111 S.3     
   6 C6            -3.5486    -1.6819     0.3767 C.2     
   7 N7            -2.6022    -2.5629     0.1689 N.2     
   8 C8            -4.9370    -1.9853     0.5531 C.1     
   9 C9            -6.0752    -2.2341     0.6977 C.1     
  10 C10           -7.4635    -2.5375     0.8741 C.ar    
  11 C11           -7.8950    -3.8655     0.8247 C.ar    
  12 O12            1.0136    -0.4206     0.5355 O.2     
  13 C13            1.2476     1.9794    -0.7315 C.3     
  14 C14           -9.2399    -4.1415     0.9971 C.ar    
  15 C15          -10.1116    -3.0834     1.2133 C.ar    
  16 C16           -9.6169    -1.7912     1.2504 C.ar    
  17 N17           -8.3323    -1.5535     1.0891 N.ar    
  18 C18           -1.1405     1.6065    -1.4555 C.3     
  19 C19           -1.4212     3.0648    -1.0757 C.3     
  20 O20           -0.2246     3.8311    -1.2338 O.3     
  21 C21            0.8554     3.4204    -0.3855 C.3     
  22 H22           -0.5455    -2.7686    -0.1419 H       
  23 H23           -7.1892    -4.6650     0.6541 H       
  24 H24            1.9670     1.6093    -0.0011 H       
  25 H25            1.6868     1.9479    -1.7286 H       
  26 H26           -9.6033    -5.1580     0.9638 H       
  27 H27          -11.1670    -3.2667     1.3510 H       
  28 H28          -10.2938    -0.9667     1.4185 H       
  29 H29           -0.9377     1.5380    -2.5243 H       
  30 H30           -2.0032     0.9892    -1.2048 H       
  31 H31           -2.1993     3.4668    -1.7246 H       
  32 H32           -1.7504     3.1138    -0.0378 H       
  33 H33            0.5382     3.4675     0.6563 H       
  34 H34            1.7090     4.0810    -0.5372 H       
@<TRIPOS>BOND
   1    1    2 am
   2    1   18 1
   3    1   13 1
   4    2    3 1
   5    2   12 2
   6    3    4 2
   7    3    5 1
   8    4    7 1
   9    4   22 1
  10    5    6 1
  11    6    7 2
  12    6    8 1
  13    8    9 3
  14    9   10 1
  15   10   11 ar
  16   10   17 ar
  17   11   14 ar
  18   11   23 1
  19   13   21 1
  20   13   24 1
  21   13   25 1
  22   14   15 ar
  23   14   26 1
  24   15   16 ar
  25   15   27 1
  26   16   17 ar
  27   16   28 1
  28   18   19 1
  29   18   29 1
  30   18   30 1
  31   19   20 1
  32   19   31 1
  33   19   32 1
  34   20   21 1
  35   21   33 1
  36   21   34 1

#	End of record

