#	Name: ASD01915431
#	Creating user name:	WinNT
#	Creation time:	15. 06. 2019 20:05

#	Modifying user name:	WinNT
#	Modification time:	15. 06. 2019 20:05

#	Program:	/corina/corina34_cracker 3.40 0067  02.08.2006

@<TRIPOS>MOLECULE
ASD01915431
  44   48    0    0    0
SMALL
NO_CHARGES


@<TRIPOS>ATOM
   1 N1            -0.1789     1.3714    -0.1202 N.pl3   
   2 N2            -0.2027    -0.0246    -0.1937 N.2     
   3 C3             1.0125    -0.5001    -0.0601 C.2     
   4 C4             1.9132     0.6398     0.1142 C.ar    
   5 C5             1.1107     1.7949     0.0683 C.ar    
   6 N6             1.6619     2.9943     0.2003 N.ar    
   7 C7             3.3040     0.7702     0.3007 C.ar    
   8 C8             3.8268     2.0524     0.4328 C.ar    
   9 C9             2.9648     3.1486     0.3771 C.ar    
  10 C10            1.4018    -1.9306    -0.0810 C.ar    
  11 C11            0.6771    -2.8638     0.6586 C.ar    
  12 C12            1.0441    -4.1939     0.6353 C.ar    
  13 C13            2.1292    -4.6017    -0.1196 C.ar    
  14 C14            2.8523    -3.6800    -0.8552 C.ar    
  15 C15            2.4905    -2.3483    -0.8449 C.ar    
  16 C16            4.1824    -0.4222     0.3550 C.ar    
  17 C17            5.2477    -0.5478    -0.5358 C.ar    
  18 C18            6.0625    -1.6601    -0.4801 C.ar    
  19 C19            5.8238    -2.6496     0.4567 C.ar    
  20 C20            4.7684    -2.5305     1.3430 C.ar    
  21 C21            3.9502    -1.4201     1.3008 C.ar    
  22 C22            3.5207     4.5163     0.5181 C.ar    
  23 C23            2.6760     5.6237     0.4644 C.ar    
  24 C24            3.1987     6.8941     0.5967 C.ar    
  25 C25            4.5583     7.0695     0.7819 C.ar    
  26 C26            5.4014     5.9742     0.8360 C.ar    
  27 C27            4.8890     4.6989     0.7107 C.ar    
  28 H28           -0.9537     1.9500    -0.1952 H       
  29 H29            4.8871     2.1979     0.5775 H       
  30 H30           -0.1698    -2.5465     1.2489 H       
  31 H31            0.4834    -4.9179     1.2080 H       
  32 H32            2.4130    -5.6436    -0.1346 H       
  33 H33            3.6990    -4.0039    -1.4423 H       
  34 H34            3.0527    -1.6303    -1.4236 H       
  35 H35            5.4346     0.2238    -1.2680 H       
  36 H36            6.8880    -1.7585    -1.1696 H       
  37 H37            6.4638    -3.5187     0.4960 H       
  38 H38            4.5866    -3.3064     2.0720 H       
  39 H39            3.1292    -1.3261     1.9961 H       
  40 H40            1.6144     5.4879     0.3192 H       
  41 H41            2.5451     7.7529     0.5553 H       
  42 H42            4.9631     8.0656     0.8843 H       
  43 H43            6.4621     6.1171     0.9805 H       
  44 H44            5.5476     3.8442     0.7571 H       
@<TRIPOS>BOND
   1    1    2 1
   2    1    5 1
   3    1   28 1
   4    2    3 2
   5    3    4 1
   6    3   10 1
   7    4    7 ar
   8    4    5 ar
   9    5    6 ar
  10    6    9 ar
  11    7    8 ar
  12    7   16 1
  13    8    9 ar
  14    8   29 1
  15    9   22 1
  16   10   11 ar
  17   10   15 ar
  18   11   12 ar
  19   11   30 1
  20   12   13 ar
  21   12   31 1
  22   13   14 ar
  23   13   32 1
  24   14   15 ar
  25   14   33 1
  26   15   34 1
  27   16   17 ar
  28   16   21 ar
  29   17   18 ar
  30   17   35 1
  31   18   19 ar
  32   18   36 1
  33   19   20 ar
  34   19   37 1
  35   20   21 ar
  36   20   38 1
  37   21   39 1
  38   22   23 ar
  39   22   27 ar
  40   23   24 ar
  41   23   40 1
  42   24   25 ar
  43   24   41 1
  44   25   26 ar
  45   25   42 1
  46   26   27 ar
  47   26   43 1
  48   27   44 1

#	End of record

