#	Name: ASD02500406
#	Creating user name:	WinNT
#	Creation time:	15. 06. 2019 20:22

#	Modifying user name:	WinNT
#	Modification time:	15. 06. 2019 20:22

#	Program:	/corina/corina34_cracker 3.40 0067  02.08.2006

@<TRIPOS>MOLECULE
ASD02500406
  71   75    0    0    0
SMALL
NO_CHARGES


@<TRIPOS>ATOM
   1 N1             2.2924     3.8638    -0.7729 N.ar    
   2 C2             3.2867     3.4908    -0.0045 C.ar    
   3 C3             4.3606     2.7546    -0.5007 C.ar    
   4 C4             4.3945     2.4031    -1.8200 C.ar    
   5 C5             3.3248     2.8051    -2.6421 C.ar    
   6 C6             3.2904     2.4814    -4.0078 C.ar    
   7 C7             2.2380     2.8891    -4.7697 C.ar    
   8 C8             1.1941     3.6241    -4.2121 C.ar    
   9 C9             1.1952     3.9554    -2.8920 C.ar    
  10 C10            2.2641     3.5527    -2.0728 C.ar    
  11 S11           -0.1376     4.8864    -2.2127 S.o2    
  12 O12            0.4502     5.9477    -1.4730 O.2     
  13 O13           -1.0616     5.0957    -3.2718 O.2     
  14 N14           -0.9021     3.9154    -1.1103 N.am    
  15 C15           -1.4968     2.7285    -1.5238 C.ar    
  16 C16           -1.2785     1.5555    -0.8065 C.ar    
  17 C17           -1.8657     0.3793    -1.2131 C.ar    
  18 C18           -2.6822     0.3631    -2.3477 C.ar    
  19 C19           -2.8995     1.5427    -3.0658 C.ar    
  20 C20           -2.3140     2.7168    -2.6509 C.ar    
  21 C21           -3.3128    -0.8962    -2.7866 C.2     
  22 O22           -4.4555    -0.8913    -3.2025 O.2     
  23 N23           -2.6225    -2.0522    -2.7267 N.am    
  24 C24           -3.2029    -3.3052    -3.2331 C.3     
  25 C25           -2.1969    -3.9566    -4.1880 C.3     
  26 N26           -0.9034    -4.1019    -3.5070 N.3     
  27 C27           -0.3390    -2.7933    -3.1506 C.3     
  28 C28           -1.2664    -2.0931    -2.1587 C.3     
  29 C29            0.0387    -4.8762    -4.3261 C.3     
  30 C30            1.4152    -4.7977    -3.7178 C.ar    
  31 C31            1.7444    -5.6050    -2.6383 C.ar    
  32 C32            3.0123    -5.5303    -2.0807 C.ar    
  33 C33            3.9440    -4.6528    -2.6011 C.ar    
  34 C34            3.6135    -3.8493    -3.6763 C.ar    
  35 C35            2.3521    -3.9262    -4.2379 C.ar    
  36 O36            0.8260    -6.4669    -2.1280 O.3     
  37 C37            1.2522    -7.3082    -1.0544 C.3     
  38 C38            0.0345    -7.7584    -0.2449 C.3     
  39 C39            1.9695    -8.5349    -1.6215 C.3     
  40 H40            3.2734     3.7616     1.0409 H       
  41 H41            5.1656     2.4624     0.1573 H       
  42 H42            5.2192     1.8330    -2.2215 H       
  43 H43            4.0942     1.9127    -4.4515 H       
  44 H44            2.2124     2.6396    -5.8202 H       
  45 H45            0.3709     3.9365    -4.8376 H       
  46 H46           -0.9349     4.1747    -0.1762 H       
  47 H47           -0.6474     1.5686     0.0698 H       
  48 H48           -1.6957    -0.5305    -0.6565 H       
  49 H49           -3.5295     1.5333    -3.9430 H       
  50 H50           -2.4853     3.6294    -3.2025 H       
  51 H51           -3.4053    -3.9780    -2.3997 H       
  52 H52           -4.1285    -3.0904    -3.7671 H       
  53 H53           -2.5628    -4.9389    -4.4871 H       
  54 H54           -2.0747    -3.3293    -5.0709 H       
  55 H55            0.6426    -2.9318    -2.6974 H       
  56 H56           -0.2427    -2.1821    -4.0480 H       
  57 H57           -0.9124    -1.0773    -1.9828 H       
  58 H58           -1.2791    -2.6471    -1.2202 H       
  59 H59           -0.2830    -5.9169    -4.3639 H       
  60 H60            0.0638    -4.4667    -5.3359 H       
  61 H61            3.2708    -6.1574    -1.2402 H       
  62 H62            4.9313    -4.5943    -2.1672 H       
  63 H63            4.3429    -3.1635    -4.0812 H       
  64 H64            2.0978    -3.3008    -5.0810 H       
  65 H65            1.9339    -6.7552    -0.4081 H       
  66 H66           -0.6472    -8.3113    -0.8911 H       
  67 H67            0.3596    -8.4000     0.5741 H       
  68 H68           -0.4765    -6.8844     0.1591 H       
  69 H69            2.2946    -9.1766    -0.8025 H       
  70 H70            1.2878    -9.0879    -2.2677 H       
  71 H71            2.8371    -8.2142    -2.1982 H       
@<TRIPOS>BOND
   1    1    2 ar
   2    1   10 ar
   3    2    3 ar
   4    2   40 1
   5    3    4 ar
   6    3   41 1
   7    4    5 ar
   8    4   42 1
   9    5    6 ar
  10    5   10 ar
  11    6    7 ar
  12    6   43 1
  13    7    8 ar
  14    7   44 1
  15    8    9 ar
  16    8   45 1
  17    9   10 ar
  18    9   11 1
  19   11   12 2
  20   11   13 2
  21   11   14 am
  22   14   15 1
  23   14   46 1
  24   15   16 ar
  25   15   20 ar
  26   16   17 ar
  27   16   47 1
  28   17   18 ar
  29   17   48 1
  30   18   19 ar
  31   18   21 1
  32   19   20 ar
  33   19   49 1
  34   20   50 1
  35   21   22 2
  36   21   23 am
  37   23   24 1
  38   23   28 1
  39   24   25 1
  40   24   51 1
  41   24   52 1
  42   25   26 1
  43   25   53 1
  44   25   54 1
  45   26   27 1
  46   26   29 1
  47   27   28 1
  48   27   55 1
  49   27   56 1
  50   28   57 1
  51   28   58 1
  52   29   30 1
  53   29   59 1
  54   29   60 1
  55   30   31 ar
  56   30   35 ar
  57   31   32 ar
  58   31   36 1
  59   32   33 ar
  60   32   61 1
  61   33   34 ar
  62   33   62 1
  63   34   35 ar
  64   34   63 1
  65   35   64 1
  66   36   37 1
  67   37   38 1
  68   37   39 1
  69   37   65 1
  70   38   66 1
  71   38   67 1
  72   38   68 1
  73   39   69 1
  74   39   70 1
  75   39   71 1

#	End of record

