#	Name: ASD00191004
#	Creating user name:	WinNT
#	Creation time:	15. 06. 2019 18:33

#	Modifying user name:	WinNT
#	Modification time:	15. 06. 2019 18:33

#	Program:	/corina/corina34_cracker 3.40 0067  02.08.2006

@<TRIPOS>MOLECULE
ASD00191004
  49   52    0    0    0
SMALL
NO_CHARGES


@<TRIPOS>ATOM
   1 C1            -1.0625     0.9515     0.3351 C.3     
   2 C2            -1.0791    -0.5866     0.2942 C.3     
   3 C3             0.3942    -1.0425     0.2605 C.3     
   4 C4             1.1730     0.1431     0.8826 C.3     
   5 C5             0.4204     1.3766     0.3249 C.3     
   6 C6            -1.7674     1.5077    -0.8752 C.2     
   7 O7            -2.2422     0.7555    -1.6994 O.2     
   8 N8            -1.8701     2.8412    -1.0416 N.am    
   9 N9            -3.3295     4.3755    -4.6269 N.ar    
  10 C10           -2.7709     3.1815    -4.5912 C.ar    
  11 C11           -2.2717     2.6401    -3.4025 C.ar    
  12 C12           -2.3587     3.3576    -2.2378 C.ar    
  13 C13           -2.9605     4.6395    -2.2859 C.ar    
  14 C14           -3.0832     5.4289    -1.1353 C.ar    
  15 C15           -3.6675     6.6578    -1.2195 C.ar    
  16 C16           -4.1448     7.1386    -2.4354 C.ar    
  17 C17           -4.0411     6.3962    -3.5727 C.ar    
  18 C18           -3.4444     5.1255    -3.5237 C.ar    
  19 N19           -2.6764     2.4433    -5.7631 N.pl3   
  20 C20           -3.3564     2.8627    -6.9099 C.ar    
  21 C21           -3.7705     1.9311    -7.8535 C.ar    
  22 C22           -4.4420     2.3489    -8.9856 C.ar    
  23 C23           -4.7019     3.6931    -9.1807 C.ar    
  24 C24           -4.2906     4.6232    -8.2436 C.ar    
  25 C25           -3.6245     4.2115    -7.1061 C.ar    
  26 C26           -5.4345     4.1454   -10.4175 C.3     
  27 H27           -1.5463     1.3060     1.2453 H       
  28 H28           -1.5710    -0.9785     1.1845 H       
  29 H29           -1.5970    -0.9308    -0.6011 H       
  30 H30            0.5286    -1.9434     0.8593 H       
  31 H31            0.7171    -1.2142    -0.7663 H       
  32 H32            1.1152     0.1147     1.9707 H       
  33 H33            2.2109     0.1407     0.5496 H       
  34 H34            0.7474     1.5956    -0.6915 H       
  35 H35            0.5738     2.2412     0.9707 H       
  36 H36           -1.6034     3.4411    -0.3274 H       
  37 H37           -1.8194     1.6594    -3.4020 H       
  38 H38           -2.7171     5.0659    -0.1863 H       
  39 H39           -3.7616     7.2657    -0.3317 H       
  40 H40           -4.6047     8.1149    -2.4776 H       
  41 H41           -4.4166     6.7829    -4.5085 H       
  42 H42           -2.1385     1.6364    -5.7860 H       
  43 H43           -3.5672     0.8813    -7.7020 H       
  44 H44           -4.7643     1.6252    -9.7195 H       
  45 H45           -4.4949     5.6723    -8.3992 H       
  46 H46           -3.3038     4.9384    -6.3745 H       
  47 H47           -6.5069     4.1529   -10.2223 H       
  48 H48           -5.1073     5.1496   -10.6869 H       
  49 H49           -5.2194     3.4608   -11.2380 H       
@<TRIPOS>BOND
   1    1    2 1
   2    1    5 1
   3    1    6 1
   4    1   27 1
   5    2    3 1
   6    2   28 1
   7    2   29 1
   8    3    4 1
   9    3   30 1
  10    3   31 1
  11    4    5 1
  12    4   32 1
  13    4   33 1
  14    5   34 1
  15    5   35 1
  16    6    7 2
  17    6    8 am
  18    8   12 1
  19    8   36 1
  20    9   10 ar
  21    9   18 ar
  22   10   11 ar
  23   10   19 1
  24   11   12 ar
  25   11   37 1
  26   12   13 ar
  27   13   14 ar
  28   13   18 ar
  29   14   15 ar
  30   14   38 1
  31   15   16 ar
  32   15   39 1
  33   16   17 ar
  34   16   40 1
  35   17   18 ar
  36   17   41 1
  37   19   20 1
  38   19   42 1
  39   20   21 ar
  40   20   25 ar
  41   21   22 ar
  42   21   43 1
  43   22   23 ar
  44   22   44 1
  45   23   24 ar
  46   23   26 1
  47   24   25 ar
  48   24   45 1
  49   25   46 1
  50   26   47 1
  51   26   48 1
  52   26   49 1

#	End of record

