#	Name: ASD00241002
#	Creating user name:	WinNT
#	Creation time:	15. 06. 2019 18:33

#	Modifying user name:	WinNT
#	Modification time:	15. 06. 2019 18:33

#	Program:	/corina/corina34_cracker 3.40 0067  02.08.2006

@<TRIPOS>MOLECULE
ASD00241002
  57   59    0    0    0
SMALL
NO_CHARGES


@<TRIPOS>ATOM
   1 C1            -0.6741     0.5581     0.2148 C.3     
   2 C2            -0.8868    -0.9677     0.3322 C.3     
   3 C3            -1.5780    -1.1460     1.7022 C.3     
   4 O4            -2.2122     0.1249     1.9638 O.3     
   5 C5            -1.2619     1.1212     1.5278 C.3     
   6 C6            -3.8108    -2.1310     1.0300 C.ar    
   7 C7            -4.4157    -3.3854     1.2147 C.ar    
   8 N8            -4.4744    -1.1840     0.3746 N.ar    
   9 C9            -5.6816    -1.4144    -0.0964 C.ar    
  10 N10           -6.2909    -2.5767     0.0527 N.ar    
  11 C11           -5.7057    -3.5832     0.6932 C.ar    
  12 N12           -3.5384    -4.1542     1.9036 N.2     
  13 C13           -2.4598    -3.4681     2.1475 C.2     
  14 N14           -2.5809    -2.2117     1.6327 N.pl3   
  15 C15           -1.9685     2.4530     1.2669 C.3     
  16 N16           -2.5898     2.9294     2.5099 N.3     
  17 C17           -1.5819     3.4845     3.4231 C.3     
  18 C18           -2.2084     3.7345     4.7707 C.2     
  19 C19           -1.6553     3.2427     5.8516 C.2     
  20 O20            0.7185     0.8636     0.1182 O.3     
  21 O21            0.3679    -1.6513     0.3117 O.3     
  22 N22           -6.3519    -4.7976     0.8441 N.pl3   
  23 C23           -1.2566    -3.9846     2.8935 C.3     
  24 C24           -0.2763    -4.6179     1.9041 C.3     
  25 C25            0.9453    -5.1423     2.6615 C.3     
  26 C26           -0.3048     2.5788     5.7716 C.3     
  27 N27            0.5982     3.1852     6.7590 N.3     
  28 C28           -3.6437     3.9131     2.2283 C.3     
  29 H29           -1.2115     0.9534    -0.6472 H       
  30 H30           -1.5314    -1.3264    -0.4703 H       
  31 H31           -0.8403    -1.3678     2.4734 H       
  32 H32           -0.4758     1.2472     2.2722 H       
  33 H33           -6.1934    -0.6233    -0.6243 H       
  34 H34           -1.2422     3.1876     0.9191 H       
  35 H35           -2.7371     2.3138     0.5067 H       
  36 H36           -0.7597     2.7770     3.5303 H       
  37 H37           -1.2031     4.4232     3.0188 H       
  38 H38           -3.1135     4.3191     4.8454 H       
  39 H39           -2.1672     3.3130     6.8000 H       
  40 H40            1.1518     0.4826    -0.6579 H       
  41 H41            0.8721    -1.5235    -0.5035 H       
  42 H42           -7.2426    -4.9216     0.4804 H       
  43 H43           -5.9143    -5.5248     1.3137 H       
  44 H44           -0.7680    -3.1591     3.4110 H       
  45 H45           -1.5732    -4.7326     3.6203 H       
  46 H46           -0.7648    -5.4434     1.3865 H       
  47 H47            0.0404    -3.8699     1.1772 H       
  48 H48            0.6286    -5.8903     3.3883 H       
  49 H49            1.6437    -5.5935     1.9566 H       
  50 H50            1.4339    -4.3168     3.1790 H       
  51 H51           -0.4102     1.5143     5.9812 H       
  52 H52            0.1075     2.7131     4.7716 H       
  53 H53            1.5111     2.7569     6.7252 H       
  54 H54            0.6619     4.1833     6.6257 H       
  55 H55           -4.3596     3.4874     1.5251 H       
  56 H56           -4.1553     4.1730     3.1550 H       
  57 H57           -3.1984     4.8090     1.7956 H       
@<TRIPOS>BOND
   1    1    2 1
   2    1   20 1
   3    1    5 1
   4    1   29 1
   5    2    3 1
   6    2   21 1
   7    2   30 1
   8    3    4 1
   9    3   14 1
  10    3   31 1
  11    4    5 1
  12    5   15 1
  13    5   32 1
  14    6    7 ar
  15    6    8 ar
  16    6   14 1
  17    7   12 1
  18    7   11 ar
  19    8    9 ar
  20    9   10 ar
  21    9   33 1
  22   10   11 ar
  23   11   22 1
  24   12   13 2
  25   13   14 1
  26   13   23 1
  27   15   16 1
  28   15   34 1
  29   15   35 1
  30   16   17 1
  31   16   28 1
  32   17   18 1
  33   17   36 1
  34   17   37 1
  35   18   19 2
  36   18   38 1
  37   19   26 1
  38   19   39 1
  39   20   40 1
  40   21   41 1
  41   22   42 1
  42   22   43 1
  43   23   24 1
  44   23   44 1
  45   23   45 1
  46   24   25 1
  47   24   46 1
  48   24   47 1
  49   25   48 1
  50   25   49 1
  51   25   50 1
  52   26   27 1
  53   26   51 1
  54   26   52 1
  55   27   53 1
  56   27   54 1
  57   28   55 1
  58   28   56 1
  59   28   57 1

#	End of record

