#	Name: ASD08830172
#	Creating user name:	WinNT
#	Creation time:	15. 06. 2019 21:19

#	Modifying user name:	WinNT
#	Modification time:	15. 06. 2019 21:19

#	Program:	/corina/corina34_cracker 3.40 0067  02.08.2006

@<TRIPOS>MOLECULE
ASD08830172
  42   44    0    0    0
SMALL
NO_CHARGES


@<TRIPOS>ATOM
   1 C1            -0.0179     1.4664     0.0101 C.ar    
   2 C2             0.0021    -0.0041     0.0020 C.2     
   3 C3            -1.2926    -0.7753     0.0102 C.3     
   4 C4            -1.0677    -2.1561    -0.6090 C.3     
   5 N5            -2.3518    -2.8623    -0.7107 N.3     
   6 O6             1.0604    -0.5961    -0.0113 O.2     
   7 C7             1.1775     2.1722     0.0025 C.ar    
   8 C8             1.1497     3.5742     0.0098 C.ar    
   9 C9            -0.0978     4.2487     0.0248 C.ar    
  10 C10           -1.2931     3.5051     0.0323 C.ar    
  11 C11           -1.2502     2.1495     0.0197 C.ar    
  12 C12            2.3398     4.3246     0.0030 C.ar    
  13 C13            2.2787     5.6841     0.0108 C.ar    
  14 C14            1.0526     6.3464     0.0259 C.ar    
  15 C15           -0.1193     5.6530     0.0325 C.ar    
  16 C16           -2.2172    -4.0877    -1.5116 C.3     
  17 C17           -3.5606    -4.8213    -1.5418 C.3     
  18 O18           -4.5654    -3.9444    -2.0585 O.3     
  19 C19           -4.7236    -2.7410    -1.3021 C.3     
  20 C20           -3.3919    -1.9864    -1.2695 C.3     
  21 C21           -1.7814    -0.9359     1.4511 C.3     
  22 H22           -2.0411    -0.2348    -0.5692 H       
  23 H23           -0.6358    -2.0425    -1.6033 H       
  24 H24           -0.3864    -2.7296     0.0196 H       
  25 H25            2.1206     1.6461    -0.0086 H       
  26 H26           -2.2453     4.0146     0.0441 H       
  27 H27           -2.1719     1.5867     0.0252 H       
  28 H28            3.2968     3.8243    -0.0080 H       
  29 H29            3.1935     6.2581     0.0056 H       
  30 H30            1.0315     7.4261     0.0326 H       
  31 H31           -1.0615     6.1808     0.0439 H       
  32 H32           -1.9216    -3.8276    -2.5280 H       
  33 H33           -1.4602    -4.7328    -1.0655 H       
  34 H34           -3.4810    -5.7004    -2.1813 H       
  35 H35           -3.8304    -5.1286    -0.5314 H       
  36 H36           -5.4850    -2.1156    -1.7682 H       
  37 H37           -5.0271    -2.9878    -0.2847 H       
  38 H38           -3.4924    -1.0975    -0.6466 H       
  39 H39           -3.1151    -1.6927    -2.2820 H       
  40 H40           -1.9417     0.0478     1.8923 H       
  41 H41           -2.7178    -1.4937     1.4571 H       
  42 H42           -1.0329    -1.4764     2.0306 H       
@<TRIPOS>BOND
   1    1    2 1
   2    1    7 ar
   3    1   11 ar
   4    2    3 1
   5    2    6 2
   6    3    4 1
   7    3   21 1
   8    3   22 1
   9    4    5 1
  10    4   23 1
  11    4   24 1
  12    5   16 1
  13    5   20 1
  14    7    8 ar
  15    7   25 1
  16    8    9 ar
  17    8   12 ar
  18    9   10 ar
  19    9   15 ar
  20   10   11 ar
  21   10   26 1
  22   11   27 1
  23   12   13 ar
  24   12   28 1
  25   13   14 ar
  26   13   29 1
  27   14   15 ar
  28   14   30 1
  29   15   31 1
  30   16   17 1
  31   16   32 1
  32   16   33 1
  33   17   18 1
  34   17   34 1
  35   17   35 1
  36   18   19 1
  37   19   20 1
  38   19   36 1
  39   19   37 1
  40   20   38 1
  41   20   39 1
  42   21   40 1
  43   21   41 1
  44   21   42 1

#	End of record

