#	Name: ASD01230460
#	Creating user name:	WinNT
#	Creation time:	15. 06. 2019 19:14

#	Modifying user name:	WinNT
#	Modification time:	15. 06. 2019 19:14

#	Program:	/corina/corina34_cracker 3.40 0067  02.08.2006

@<TRIPOS>MOLECULE
ASD01230460
  22   23    0    0    0
SMALL
NO_CHARGES


@<TRIPOS>ATOM
   1 C1            -0.0169     1.3980     0.0097 C.ar    
   2 C2             0.0021    -0.0041     0.0020 C.ar    
   3 C3             1.2324    -0.6605    -0.0132 C.ar    
   4 C4             2.3881     0.1053    -0.0201 C.ar    
   5 C5             2.2900     1.4830    -0.0118 C.ar    
   6 N6             1.1146     2.0833     0.0026 N.ar    
   7 C7            -2.2607    -0.4897     0.9413 C.ar    
   8 C8            -1.2644    -0.7756     0.0104 C.ar    
   9 C9            -1.4772    -1.8010    -0.9162 C.ar    
  10 C10           -2.6750    -2.4913    -0.8681 C.ar    
  11 C11           -3.6173    -2.1475     0.0884 C.ar    
  12 N12           -3.3871    -1.1733     0.9501 N.ar    
  13 N13           -1.2309     2.0712     0.0191 N.pl3   
  14 F14           -4.7888    -2.8184     0.1397 F       
  15 H15            1.2836    -1.7392    -0.0192 H       
  16 H16            3.3571    -0.3715    -0.0316 H       
  17 H17            3.1905     2.0793    -0.0172 H       
  18 H18           -2.1066     0.2969     1.6651 H       
  19 H19           -0.7254    -2.0476    -1.6512 H       
  20 H20           -2.8738    -3.2891    -1.5684 H       
  21 H21           -2.0624     1.5717     0.0203 H       
  22 H22           -1.2476     3.0410     0.0245 H       
@<TRIPOS>BOND
   1    1    2 ar
   2    1    6 ar
   3    1   13 1
   4    2    3 ar
   5    2    8 1
   6    3    4 ar
   7    3   15 1
   8    4    5 ar
   9    4   16 1
  10    5    6 ar
  11    5   17 1
  12    7    8 ar
  13    7   12 ar
  14    7   18 1
  15    8    9 ar
  16    9   10 ar
  17    9   19 1
  18   10   11 ar
  19   10   20 1
  20   11   12 ar
  21   11   14 1
  22   13   21 1
  23   13   22 1

#	End of record

