#	Name: ASD01910140
#	Creating user name:	WinNT
#	Creation time:	15. 06. 2019 19:55

#	Modifying user name:	WinNT
#	Modification time:	15. 06. 2019 19:55

#	Program:	/corina/corina34_cracker 3.40 0067  02.08.2006

@<TRIPOS>MOLECULE
ASD01910140
  40   42    0    0    0
SMALL
NO_CHARGES


@<TRIPOS>ATOM
   1 C1             0.0212     1.2985     0.0719 C.ar    
   2 C2             0.0461    -0.0768    -0.0802 C.ar    
   3 C3             1.2505    -0.7416    -0.2308 C.ar    
   4 C4             2.4359    -0.0369    -0.2298 C.ar    
   5 C5             2.4188     1.3523    -0.0766 C.ar    
   6 C6             1.1984     2.0169     0.0745 C.ar    
   7 C7             3.6455     2.0911    -0.0740 C.1     
   8 C8             4.6512     2.6968    -0.0719 C.1     
   9 C9             5.8780     3.4355    -0.0693 C.ar    
  10 N10            5.8486     4.7584     0.0773 N.ar    
  11 C11            6.9509     5.4750     0.0859 C.ar    
  12 C12            8.1983     4.8630    -0.0607 C.ar    
  13 C13            8.2623     3.4702    -0.2173 C.ar    
  14 C14            7.0934     2.7576    -0.2153 C.ar    
  15 C15            9.4333     5.6715    -0.0516 C.2     
  16 O16            9.4670     6.7365    -0.6372 O.2     
  17 N17           10.5234     5.2292     0.6060 N.am    
  18 C18           11.7968     5.9569     0.5187 C.3     
  19 C19           12.2897     6.2601     1.9371 C.3     
  20 C20           12.3640     4.9571     2.7364 C.3     
  21 C21           10.9688     4.3354     2.8325 C.3     
  22 C22           10.4595     4.0136     1.4287 C.3     
  23 H23           -0.9228     1.8110     0.1845 H       
  24 H24           -0.8790    -0.6340    -0.0811 H       
  25 H25            1.2620    -1.8150    -0.3490 H       
  26 H26            3.3751    -0.5572    -0.3467 H       
  27 H27            1.1774     3.0902     0.1930 H       
  28 H28            6.8915     6.5465     0.2069 H       
  29 H29            9.2129     2.9709    -0.3329 H       
  30 H30            7.1086     1.6842    -0.3336 H       
  31 H31           12.5332     5.3438    -0.0009 H       
  32 H32           11.6476     6.8906    -0.0237 H       
  33 H33           13.2794     6.7143     1.8890 H       
  34 H34           11.5971     6.9466     2.4240 H       
  35 H35           13.0377     4.2618     2.2357 H       
  36 H36           12.7379     5.1667     3.7386 H       
  37 H37           11.0184     3.4197     3.4216 H       
  38 H38           10.2887     5.0401     3.3109 H       
  39 H39            9.4289     3.6630     1.4854 H       
  40 H40           11.0859     3.2422     0.9806 H       
@<TRIPOS>BOND
   1    1    2 ar
   2    1    6 ar
   3    1   23 1
   4    2    3 ar
   5    2   24 1
   6    3    4 ar
   7    3   25 1
   8    4    5 ar
   9    4   26 1
  10    5    6 ar
  11    5    7 1
  12    6   27 1
  13    7    8 3
  14    8    9 1
  15    9   10 ar
  16    9   14 ar
  17   10   11 ar
  18   11   12 ar
  19   11   28 1
  20   12   13 ar
  21   12   15 1
  22   13   14 ar
  23   13   29 1
  24   14   30 1
  25   15   16 2
  26   15   17 am
  27   17   18 1
  28   17   22 1
  29   18   19 1
  30   18   31 1
  31   18   32 1
  32   19   20 1
  33   19   33 1
  34   19   34 1
  35   20   21 1
  36   20   35 1
  37   20   36 1
  38   21   22 1
  39   21   37 1
  40   21   38 1
  41   22   39 1
  42   22   40 1

#	End of record

