#	Name: ASD01883276
#	Creating user name:	WinNT
#	Creation time:	15. 06. 2019 19:46

#	Modifying user name:	WinNT
#	Modification time:	15. 06. 2019 19:46

#	Program:	/corina/corina34_cracker 3.40 0067  02.08.2006

@<TRIPOS>MOLECULE
ASD01883276
  57   59    0    0    0
SMALL
NO_CHARGES


@<TRIPOS>ATOM
   1 N1            -0.0162     1.3417     0.0094 N.am    
   2 C2             0.0021    -0.0041     0.0020 C.2     
   3 C3            -1.2167    -0.7275     0.0102 C.2     
   4 C4            -2.4257    -0.0118     0.0261 C.2     
   5 C5            -2.3786     1.3953     0.0332 C.2     
   6 C6            -1.1848     2.0318     0.0299 C.2     
   7 O7             1.0656    -0.6000    -0.0121 O.2     
   8 C8            -1.2158    -2.1595     0.0021 C.1     
   9 N9            -1.2152    -3.2954    -0.0044 N.1     
  10 C10            1.2511     2.0766     0.0013 C.3     
  11 C11            1.6785     2.3402    -1.4440 C.3     
  12 C12            3.0021     3.1077    -1.4525 C.3     
  13 C13            4.1048     2.2294    -0.8581 C.3     
  14 C14            3.3665     3.4801    -2.8911 C.3     
  15 C15           -3.7230    -0.7231     0.0347 C.ar    
  16 C16           -4.0810    -1.5134     1.1282 C.ar    
  17 C17           -5.2919    -2.1756     1.1341 C.ar    
  18 C18           -6.1537    -2.0595     0.0598 C.ar    
  19 C19           -5.8063    -1.2751    -1.0344 C.ar    
  20 C20           -4.5948    -0.6014    -1.0473 C.ar    
  21 N21           -6.6804    -1.1615    -2.1182 N.3     
  22 C22           -7.9009    -1.9478    -1.8948 C.3     
  23 C23           -8.9052    -1.6552    -3.0147 C.3     
  24 N24           -8.2438    -1.8874    -4.3077 N.am    
  25 C25           -6.9457    -1.2404    -4.5515 C.3     
  26 C26           -6.0186    -1.5493    -3.3711 C.3     
  27 C27           -8.8121    -2.6726    -5.2442 C.2     
  28 O28           -9.8829    -3.1986    -5.0262 O.2     
  29 C29           -8.1169    -2.8969    -6.5624 C.3     
  30 H30           -3.2952     1.9664     0.0453 H       
  31 H31           -1.1613     3.1116     0.0358 H       
  32 H32            1.1239     3.0260     0.5214 H       
  33 H33            2.0167     1.4863     0.5046 H       
  34 H34            1.8057     1.3908    -1.9642 H       
  35 H35            0.9129     2.9306    -1.9474 H       
  36 H36            2.8998     4.0151    -0.8572 H       
  37 H37            4.2071     1.3221    -1.4534 H       
  38 H38            5.0477     2.7762    -0.8642 H       
  39 H39            3.8452     1.9641     0.1668 H       
  40 H40            2.5808     4.1058    -3.3145 H       
  41 H41            4.3094     4.0268    -2.8971 H       
  42 H42            3.4688     2.5727    -3.4864 H       
  43 H43           -3.4102    -1.6070     1.9694 H       
  44 H44           -5.5669    -2.7868     1.9810 H       
  45 H45           -7.1000    -2.5800     0.0702 H       
  46 H46           -4.3231     0.0087    -1.8961 H       
  47 H47           -7.6547    -3.0097    -1.8953 H       
  48 H48           -8.3380    -1.6758    -0.9341 H       
  49 H49           -9.7645    -2.3189    -2.9185 H       
  50 H50           -9.2318    -0.6172    -2.9516 H       
  51 H51           -6.5094    -1.6298    -5.4713 H       
  52 H52           -7.0839    -0.1625    -4.6361 H       
  53 H53           -5.0905    -0.9883    -3.4810 H       
  54 H54           -5.7986    -2.6167    -3.3510 H       
  55 H55           -7.1449    -3.3579    -6.3867 H       
  56 H56           -8.7233    -3.5540    -7.1858 H       
  57 H57           -7.9796    -1.9411    -7.0680 H       
@<TRIPOS>BOND
   1    1    2 am
   2    1   10 1
   3    1    6 1
   4    2    3 1
   5    2    7 2
   6    3    4 2
   7    3    8 1
   8    4    5 1
   9    4   15 1
  10    5    6 2
  11    5   30 1
  12    6   31 1
  13    8    9 3
  14   10   11 1
  15   10   32 1
  16   10   33 1
  17   11   12 1
  18   11   34 1
  19   11   35 1
  20   12   13 1
  21   12   14 1
  22   12   36 1
  23   13   37 1
  24   13   38 1
  25   13   39 1
  26   14   40 1
  27   14   41 1
  28   14   42 1
  29   15   16 ar
  30   15   20 ar
  31   16   17 ar
  32   16   43 1
  33   17   18 ar
  34   17   44 1
  35   18   19 ar
  36   18   45 1
  37   19   20 ar
  38   19   21 1
  39   20   46 1
  40   21   22 1
  41   21   26 1
  42   22   23 1
  43   22   47 1
  44   22   48 1
  45   23   24 1
  46   23   49 1
  47   23   50 1
  48   24   25 1
  49   24   27 am
  50   25   26 1
  51   25   51 1
  52   25   52 1
  53   26   53 1
  54   26   54 1
  55   27   28 2
  56   27   29 1
  57   29   55 1
  58   29   56 1
  59   29   57 1

#	End of record

