#	Name: ASD07930633
#	Creating user name:	WinNT
#	Creation time:	15. 06. 2019 21:12

#	Modifying user name:	WinNT
#	Modification time:	15. 06. 2019 21:12

#	Program:	/corina/corina34_cracker 3.40 0067  02.08.2006

@<TRIPOS>MOLECULE
ASD07930633
  51   53    0    0    0
SMALL
NO_CHARGES


@<TRIPOS>ATOM
   1 C1            -0.0337     1.4578     0.0423 C.3     
   2 N2             0.7957    -0.4139    -2.1302 N.2     
   3 N3            -0.8902    -1.7838    -1.2685 N.pl3   
   4 C4            -0.9149    -2.8273    -0.2382 C.3     
   5 C5            -1.2299    -2.1886     1.1215 C.3     
   6 S6             0.0064    -0.8916     1.4434 S.o2    
   7 N7            -0.0137    -0.0070     0.0314 N.am    
   8 C8            -0.0109    -0.7264    -1.1552 C.2     
   9 C9             0.4500    -3.5158    -0.1754 C.3     
  10 C10           -1.9765    -3.8424    -0.5754 C.ar    
  11 C11           -2.8068    -3.6382    -1.6597 C.ar    
  12 C12           -3.7848    -4.5743    -1.9703 C.ar    
  13 C13           -3.9253    -5.7137    -1.1894 C.ar    
  14 C14           -3.0926    -5.9141    -0.1056 C.ar    
  15 C15           -2.1150    -4.9822     0.1991 C.ar    
  16 O16           -0.4573     0.0115     2.4377 O.2     
  17 O17            1.3142    -1.4444     1.5004 O.2     
  18 N18           -4.6276    -4.3691    -3.0684 N.am    
  19 C19           -5.0471    -5.4194    -3.8014 C.2     
  20 O20           -4.6173    -6.5330    -3.5697 O.2     
  21 C21           -6.0280    -5.2179    -4.8850 C.ar    
  22 C22           -6.5230    -3.9423    -5.1535 C.ar    
  23 F23           -1.3013    -5.1803     1.2592 F       
  24 C24           -7.4393    -3.7561    -6.1671 C.ar    
  25 C25           -7.8758    -4.8350    -6.9271 C.ar    
  26 C26           -7.3937    -6.1116    -6.6730 C.ar    
  27 C27           -6.4647    -6.3132    -5.6575 C.ar    
  28 O28           -8.7781    -4.6393    -7.9221 O.3     
  29 C29           -9.2339    -3.3011    -8.1305 C.3     
  30 C30           -5.9636    -7.6279    -5.3906 C.1     
  31 N31           -5.5661    -8.6708    -5.1788 N.1     
  32 H32            0.9889     1.8352     0.0392 H       
  33 H33           -0.5575     1.8206    -0.8421 H       
  34 H34           -0.5473     1.8075     0.9378 H       
  35 H35            1.4075     0.3325    -2.0332 H       
  36 H36           -1.4881    -1.8390    -2.0303 H       
  37 H37           -2.2268    -1.7485     1.0987 H       
  38 H38           -1.1799    -2.9461     1.9037 H       
  39 H39            1.2166    -2.7809     0.0705 H       
  40 H40            0.4310    -4.2911     0.5904 H       
  41 H41            0.6749    -3.9656    -1.1424 H       
  42 H42           -2.6960    -2.7510    -2.2656 H       
  43 H43           -4.6853    -6.4427    -1.4289 H       
  44 H44           -3.2016    -6.8002     0.5020 H       
  45 H45           -4.9098    -3.4709    -3.3021 H       
  46 H46           -6.1887    -3.0994    -4.5669 H       
  47 H47           -7.8203    -2.7664    -6.3713 H       
  48 H48           -7.7361    -6.9468    -7.2660 H       
  49 H49           -9.9494    -3.2849    -8.9526 H       
  50 H50           -9.7147    -2.9355    -7.2232 H       
  51 H51           -8.3853    -2.6621    -8.3748 H       
@<TRIPOS>BOND
   1    1    7 1
   2    1   32 1
   3    1   33 1
   4    1   34 1
   5    2    8 2
   6    2   35 1
   7    3    4 1
   8    3    8 1
   9    3   36 1
  10    4    5 1
  11    4    9 1
  12    4   10 1
  13    5    6 1
  14    5   37 1
  15    5   38 1
  16    6    7 am
  17    6   16 2
  18    6   17 2
  19    7    8 1
  20    9   39 1
  21    9   40 1
  22    9   41 1
  23   10   11 ar
  24   10   15 ar
  25   11   12 ar
  26   11   42 1
  27   12   13 ar
  28   12   18 1
  29   13   14 ar
  30   13   43 1
  31   14   15 ar
  32   14   44 1
  33   15   23 1
  34   18   19 am
  35   18   45 1
  36   19   20 2
  37   19   21 1
  38   21   22 ar
  39   21   27 ar
  40   22   24 ar
  41   22   46 1
  42   24   25 ar
  43   24   47 1
  44   25   26 ar
  45   25   28 1
  46   26   27 ar
  47   26   48 1
  48   27   30 1
  49   28   29 1
  50   29   49 1
  51   29   50 1
  52   29   51 1
  53   30   31 3

#	End of record

