#	Name: ASD01814296
#	Creating user name:	WinNT
#	Creation time:	15. 06. 2019 19:32

#	Modifying user name:	WinNT
#	Modification time:	15. 06. 2019 19:32

#	Program:	/corina/corina34_cracker 3.40 0067  02.08.2006

@<TRIPOS>MOLECULE
ASD01814296
  49   53    0    0    0
SMALL
NO_CHARGES


@<TRIPOS>ATOM
   1 C1            -0.0168     1.3869     0.0097 C.ar    
   2 C2             0.0021    -0.0041     0.0020 C.ar    
   3 C3             1.1801    -0.6897    -0.0124 C.ar    
   4 C4             2.3948     0.0129    -0.0202 C.ar    
   5 C5             2.3717     1.4289    -0.0129 C.ar    
   6 C6             1.1456     2.1014     0.0024 C.ar    
   7 C7             3.6294    -0.6695    -0.0356 C.ar    
   8 C8             4.8032     0.0061    -0.0437 C.ar    
   9 C9             4.8362     1.4094    -0.0365 C.ar    
  10 C10            3.6406     2.1511    -0.0211 C.ar    
  11 C11            6.1027     2.1518    -0.0451 C.2     
  12 N12            6.0337     3.5033    -0.0377 N.am    
  13 C13            4.8298     4.1315    -0.0228 C.2     
  14 N14            3.6958     3.4933    -0.0149 N.2     
  15 C15            3.6423    -2.1764    -0.0428 C.3     
  16 C16            3.5088    -2.6732    -1.4593 C.ar    
  17 C17            4.6401    -2.8899    -2.2242 C.ar    
  18 C18            4.5204    -3.3452    -3.5229 C.ar    
  19 C19            3.2637    -3.5851    -4.0595 C.ar    
  20 C20            2.1302    -3.3669    -3.2900 C.ar    
  21 C21            2.2555    -2.9169    -1.9899 C.ar    
  22 O22            7.1745     1.5735    -0.0580 O.2     
  23 C23            7.2144     4.2608    -0.0449 C.2     
  24 N24            7.3195     5.5706     0.0527 N.2     
  25 N25            8.5648     5.8880     0.0077 N.pl3   
  26 N26            9.3012     4.8414    -0.1164 N.2     
  27 C27            8.5278     3.7805    -0.1514 C.2     
  28 C28            9.0760     7.2586     0.0869 C.3     
  29 O29            3.1433    -4.0327    -5.3371 O.3     
  30 C30            1.8187    -4.2580    -5.8234 C.3     
  31 H31           -0.9630     1.9075     0.0169 H       
  32 H32           -0.9305    -0.5488     0.0080 H       
  33 H33            1.1786    -1.7697    -0.0175 H       
  34 H34            1.1189     3.1811     0.0077 H       
  35 H35            5.7316    -0.5455    -0.0554 H       
  36 H36            4.8128     5.2114    -0.0168 H       
  37 H37            4.5811    -2.5337     0.3806 H       
  38 H38            2.8096    -2.5498     0.5532 H       
  39 H39            5.6181    -2.7026    -1.8061 H       
  40 H40            5.4043    -3.5140    -4.1201 H       
  41 H41            1.1509    -3.5529    -3.7055 H       
  42 H42            1.3735    -2.7472    -1.3903 H       
  43 H43            8.8387     2.7508    -0.2488 H       
  44 H44            9.2603     7.5181     1.1294 H       
  45 H45           10.0066     7.3324    -0.4758 H       
  46 H46            8.3415     7.9452    -0.3341 H       
  47 H47            1.3264    -5.0070    -5.2030 H       
  48 H48            1.2541    -3.3264    -5.7850 H       
  49 H49            1.8650    -4.6126    -6.8531 H       
@<TRIPOS>BOND
   1    1    2 ar
   2    1    6 ar
   3    1   31 1
   4    2    3 ar
   5    2   32 1
   6    3    4 ar
   7    3   33 1
   8    4    5 ar
   9    4    7 ar
  10    5    6 ar
  11    5   10 ar
  12    6   34 1
  13    7    8 ar
  14    7   15 1
  15    8    9 ar
  16    8   35 1
  17    9   10 ar
  18    9   11 1
  19   10   14 1
  20   11   12 am
  21   11   22 2
  22   12   13 1
  23   12   23 1
  24   13   14 2
  25   13   36 1
  26   15   16 1
  27   15   37 1
  28   15   38 1
  29   16   17 ar
  30   16   21 ar
  31   17   18 ar
  32   17   39 1
  33   18   19 ar
  34   18   40 1
  35   19   20 ar
  36   19   29 1
  37   20   21 ar
  38   20   41 1
  39   21   42 1
  40   23   24 2
  41   23   27 1
  42   24   25 1
  43   25   26 1
  44   25   28 1
  45   26   27 2
  46   27   43 1
  47   28   44 1
  48   28   45 1
  49   28   46 1
  50   29   30 1
  51   30   47 1
  52   30   48 1
  53   30   49 1

#	End of record

