#	Name: ASD01908334
#	Creating user name:	WinNT
#	Creation time:	15. 06. 2019 19:54

#	Modifying user name:	WinNT
#	Modification time:	15. 06. 2019 19:54

#	Program:	/corina/corina34_cracker 3.40 0067  02.08.2006

@<TRIPOS>MOLECULE
ASD01908334
  35   37    0    0    0
SMALL
NO_CHARGES


@<TRIPOS>ATOM
   1 S1            -0.0218     1.7555     0.0117 S.3     
   2 C2             0.0021    -0.0041     0.0020 C.2     
   3 N3             1.2318    -0.4196    -0.0120 N.2     
   4 C4             2.1639     0.5343    -0.0157 C.2     
   5 C5             1.6874     1.7989    -0.0044 C.2     
   6 C6             3.6036     0.2324    -0.0306 C.2     
   7 O7             4.4145     1.1379    -0.0331 O.2     
   8 O8             4.0236    -1.0486    -0.0416 O.3     
   9 N9            -3.2739    -1.5594     0.0257 N.pl3   
  10 N10           -2.4423    -2.6855     0.0127 N.2     
  11 C11           -1.1991    -2.2851     0.0030 C.2     
  12 C12           -1.1939    -0.8747     0.0095 C.2     
  13 C13           -2.4961    -0.4596     0.0236 C.2     
  14 C14           -4.7388    -1.5745     0.0337 C.3     
  15 C15           -5.2392    -2.3864    -1.1331 C.ar    
  16 C16           -5.4545    -3.7444    -0.9872 C.ar    
  17 C17           -5.9132    -4.4908    -2.0552 C.ar    
  18 C18           -6.1578    -3.8768    -3.2750 C.ar    
  19 C19           -5.9410    -2.5141    -3.4188 C.ar    
  20 C20           -5.4876    -1.7710    -2.3461 C.ar    
  21 O21           -6.6087    -4.6091    -4.3273 O.3     
  22 C22           -6.8389    -3.9106    -5.5525 C.3     
  23 H23            2.2905     2.6948    -0.0053 H       
  24 H24            4.9790    -1.1972    -0.0512 H       
  25 H25           -0.3274    -2.9226    -0.0078 H       
  26 H26           -2.8392     0.5644     0.0312 H       
  27 H27           -5.0924    -2.0190     0.9640 H       
  28 H28           -5.1130    -0.5539    -0.0466 H       
  29 H29           -5.2636    -4.2219    -0.0375 H       
  30 H30           -6.0809    -5.5516    -1.9409 H       
  31 H31           -6.1307    -2.0338    -4.3674 H       
  32 H32           -5.3232    -0.7093    -2.4562 H       
  33 H33           -7.1957    -4.6104    -6.3082 H       
  34 H34           -7.5878    -3.1348    -5.3933 H       
  35 H35           -5.9088    -3.4538    -5.8907 H       
@<TRIPOS>BOND
   1    1    2 1
   2    1    5 1
   3    2    3 2
   4    2   12 1
   5    3    4 1
   6    4    5 2
   7    4    6 1
   8    5   23 1
   9    6    7 2
  10    6    8 1
  11    8   24 1
  12    9   10 1
  13    9   13 1
  14    9   14 1
  15   10   11 2
  16   11   12 1
  17   11   25 1
  18   12   13 2
  19   13   26 1
  20   14   15 1
  21   14   27 1
  22   14   28 1
  23   15   16 ar
  24   15   20 ar
  25   16   17 ar
  26   16   29 1
  27   17   18 ar
  28   17   30 1
  29   18   19 ar
  30   18   21 1
  31   19   20 ar
  32   19   31 1
  33   20   32 1
  34   21   22 1
  35   22   33 1
  36   22   34 1
  37   22   35 1

#	End of record

