#	Name: ASD07930689
#	Creating user name:	WinNT
#	Creation time:	15. 06. 2019 21:13

#	Modifying user name:	WinNT
#	Modification time:	15. 06. 2019 21:13

#	Program:	/corina/corina34_cracker 3.40 0067  02.08.2006

@<TRIPOS>MOLECULE
ASD07930689
  41   43    0    0    0
SMALL
NO_CHARGES


@<TRIPOS>ATOM
   1 C1            -0.0178     1.4608     0.0101 C.3     
   2 N2             0.8031    -0.4153    -2.1619 N.2     
   3 N3            -0.8796    -1.7833    -1.2911 N.pl3   
   4 C4            -0.9005    -2.8248    -0.2586 C.3     
   5 C5            -1.2102    -2.1834     1.1010 C.3     
   6 S6             0.0275    -0.8859     1.4156 S.o2    
   7 N7             0.0021    -0.0041     0.0020 N.am    
   8 C8             0.0002    -0.7257    -1.1832 C.2     
   9 C9             0.4646    -3.5132    -0.1997 C.3     
  10 O10           -0.4323     0.0192     2.4099 O.2     
  11 O11            1.3354    -1.4387     1.4687 O.2     
  12 C12           -1.9634    -3.8404    -0.5898 C.ar    
  13 C13           -3.6340    -5.2987    -3.6259 C.ar    
  14 C14           -4.6183    -6.2387    -3.9412 C.ar    
  15 C15           -4.9204    -6.4509    -5.2768 C.ar    
  16 C16           -4.2434    -5.7313    -6.2459 C.ar    
  17 N17           -3.3184    -4.8506    -5.9163 N.ar    
  18 C18           -2.9983    -4.6153    -4.6605 C.ar    
  19 Cl19          -6.1340    -7.6067    -5.7293 Cl      
  20 C20           -2.2925    -4.0886    -1.9068 C.ar    
  21 C21           -3.2756    -5.0280    -2.2116 C.ar    
  22 C22           -3.9211    -5.7117    -1.1836 C.ar    
  23 C23           -3.5840    -5.4556     0.1303 C.ar    
  24 C24           -2.6036    -4.5264     0.4268 C.ar    
  25 H25            1.0048     1.8381     0.0023 H       
  26 H26           -0.5450     1.8219    -0.8730 H       
  27 H27           -0.5280     1.8123     0.9069 H       
  28 H28            1.4154     0.3313    -2.0687 H       
  29 H29           -1.4804    -1.8399    -2.0505 H       
  30 H30           -2.2071    -1.7432     1.0811 H       
  31 H31           -1.1573    -2.9394     1.8845 H       
  32 H32            1.2322    -2.7780     0.0418 H       
  33 H33            0.4485    -4.2871     0.5677 H       
  34 H34            0.6857    -3.9650    -1.1667 H       
  35 H35           -5.1304    -6.7862    -3.1638 H       
  36 H36           -4.4758    -5.8937    -7.2880 H       
  37 H37           -2.2353    -3.8864    -4.4306 H       
  38 H38           -1.7892    -3.5554    -2.6998 H       
  39 H39           -4.6840    -6.4406    -1.4142 H       
  40 H40           -4.0838    -5.9851     0.9280 H       
  41 H41           -2.3430    -4.3290     1.4562 H       
@<TRIPOS>BOND
   1    1    7 1
   2    1   25 1
   3    1   26 1
   4    1   27 1
   5    2    8 2
   6    2   28 1
   7    3    4 1
   8    3    8 1
   9    3   29 1
  10    4    5 1
  11    4    9 1
  12    4   12 1
  13    5    6 1
  14    5   30 1
  15    5   31 1
  16    6    7 am
  17    6   10 2
  18    6   11 2
  19    7    8 1
  20    9   32 1
  21    9   33 1
  22    9   34 1
  23   12   20 ar
  24   12   24 ar
  25   13   14 ar
  26   13   18 ar
  27   13   21 1
  28   14   15 ar
  29   14   35 1
  30   15   16 ar
  31   15   19 1
  32   16   17 ar
  33   16   36 1
  34   17   18 ar
  35   18   37 1
  36   20   21 ar
  37   20   38 1
  38   21   22 ar
  39   22   23 ar
  40   22   39 1
  41   23   24 ar
  42   23   40 1
  43   24   41 1

#	End of record

