#	Name: ASD04590623
#	Creating user name:	WinNT
#	Creation time:	15. 06. 2019 20:51

#	Modifying user name:	WinNT
#	Modification time:	15. 06. 2019 20:51

#	Program:	/corina/corina34_cracker 3.40 0067  02.08.2006

@<TRIPOS>MOLECULE
ASD04590623
  66   71    0    0    0
SMALL
NO_CHARGES


@<TRIPOS>ATOM
   1 N1            -2.3782    -2.7058     0.0204 N.ar    
   2 C2            -1.2117    -2.0738     0.0040 C.ar    
   3 N3            -0.0573    -2.7202    -0.0182 N.ar    
   4 C4            -0.0259    -4.0495    -0.0245 C.ar    
   5 C5            -1.2486    -4.7504    -0.0070 C.ar    
   6 C6            -2.4370    -4.0273     0.0156 C.ar    
   7 N7             0.9980    -4.9638    -0.0457 N.pl3   
   8 C8             0.4950    -6.2534    -0.0429 C.ar    
   9 C9            -0.9092    -6.1791    -0.0190 C.ar    
  10 C10            1.0915    -7.5075    -0.0583 C.ar    
  11 N11            0.3552    -8.6000    -0.0507 N.ar    
  12 C12           -0.9655    -8.5647    -0.0284 C.ar    
  13 C13           -1.6436    -7.3644    -0.0122 C.ar    
  14 N14           -1.2019    -0.6887     0.0098 N.pl3   
  15 C15           -2.4013     0.0175    -0.0802 C.ar    
  16 C16            2.4226    -4.6227    -0.0686 C.3     
  17 C17            2.7326    -3.7300    -1.2879 C.3     
  18 C18            2.7883    -3.8026     1.1810 C.3     
  19 C19            3.3079    -2.4402     0.6774 C.3     
  20 C20            2.6734    -2.2873    -0.7273 C.3     
  21 N21           -3.5340    -0.6390    -0.2721 N.ar    
  22 C22           -4.6918    -0.0124    -0.3634 C.ar    
  23 C23           -4.7605     1.3688    -0.2608 C.ar    
  24 C24           -3.5874     2.0945    -0.0583 C.ar    
  25 C25           -2.3937     1.4030     0.0384 C.ar    
  26 N26           -5.9924     2.0264    -0.3597 N.3     
  27 C27           -7.0857     1.0675    -0.5715 C.3     
  28 C28           -8.4202     1.8164    -0.5945 C.3     
  29 N29           -8.3943     2.8256    -1.6625 N.3     
  30 C30           -7.3011     3.7845    -1.4506 C.3     
  31 C31           -5.9665     3.0355    -1.4276 C.3     
  32 C32           -9.6870     3.5156    -1.7662 C.3     
  33 C33           -9.5839     4.6393    -2.7994 C.3     
  34 C34          -10.7634     2.5193    -2.2020 C.3     
  35 H35           -3.3898    -4.5356     0.0297 H       
  36 H36            2.1683    -7.5879    -0.0771 H       
  37 H37           -1.5222    -9.4902    -0.0234 H       
  38 H38           -2.7232    -7.3426     0.0064 H       
  39 H39           -0.3610    -0.2099     0.0766 H       
  40 H40            3.0232    -5.5314    -0.1078 H       
  41 H41            3.7273    -3.9475    -1.6769 H       
  42 H42            1.9798    -3.8689    -2.0637 H       
  43 H43            1.9059    -3.6584     1.8044 H       
  44 H44            3.5671    -4.3129     1.7477 H       
  45 H45            2.9748    -1.6379     1.3358 H       
  46 H46            4.3955    -2.4494     0.6058 H       
  47 H47            3.2614    -1.6084    -1.3449 H       
  48 H48            1.6415    -1.9450    -0.6498 H       
  49 H49           -5.5960    -0.5817    -0.5203 H       
  50 H50           -3.6110     3.1710     0.0253 H       
  51 H51           -1.4660     1.9332     0.1955 H       
  52 H52           -6.9402     0.5543    -1.5221 H       
  53 H53           -7.0919     0.3382     0.2386 H       
  54 H54           -9.2300     1.1109    -0.7804 H       
  55 H55           -8.5784     2.3072     0.3658 H       
  56 H56           -7.2949     4.5137    -2.2607 H       
  57 H57           -7.4465     4.2976    -0.5000 H       
  58 H58           -5.1567     3.7411    -1.2417 H       
  59 H59           -5.8083     2.5447    -2.3880 H       
  60 H60           -9.9530     3.9367    -0.7967 H       
  61 H61           -9.3180     4.2182    -3.7690 H       
  62 H62          -10.5430     5.1513    -2.8764 H       
  63 H63           -8.8171     5.3491    -2.4889 H       
  64 H64          -10.8369     1.7188    -1.4660 H       
  65 H65          -11.7226     3.0313    -2.2790 H       
  66 H66          -10.4975     2.0982    -3.1716 H       
@<TRIPOS>BOND
   1    1    2 ar
   2    1    6 ar
   3    2    3 ar
   4    2   14 1
   5    3    4 ar
   6    4    5 ar
   7    4    7 1
   8    5    6 ar
   9    5    9 1
  10    6   35 1
  11    7    8 1
  12    7   16 1
  13    8    9 ar
  14    8   10 ar
  15    9   13 ar
  16   10   11 ar
  17   10   36 1
  18   11   12 ar
  19   12   13 ar
  20   12   37 1
  21   13   38 1
  22   14   15 1
  23   14   39 1
  24   15   21 ar
  25   15   25 ar
  26   16   18 1
  27   16   17 1
  28   16   40 1
  29   17   20 1
  30   17   41 1
  31   17   42 1
  32   18   19 1
  33   18   43 1
  34   18   44 1
  35   19   20 1
  36   19   45 1
  37   19   46 1
  38   20   47 1
  39   20   48 1
  40   21   22 ar
  41   22   23 ar
  42   22   49 1
  43   23   24 ar
  44   23   26 1
  45   24   25 ar
  46   24   50 1
  47   25   51 1
  48   26   27 1
  49   26   31 1
  50   27   28 1
  51   27   52 1
  52   27   53 1
  53   28   29 1
  54   28   54 1
  55   28   55 1
  56   29   30 1
  57   29   32 1
  58   30   31 1
  59   30   56 1
  60   30   57 1
  61   31   58 1
  62   31   59 1
  63   32   33 1
  64   32   34 1
  65   32   60 1
  66   33   61 1
  67   33   62 1
  68   33   63 1
  69   34   64 1
  70   34   65 1
  71   34   66 1

#	End of record

