#	Name: ASD01814611
#	Creating user name:	WinNT
#	Creation time:	15. 06. 2019 19:32

#	Modifying user name:	WinNT
#	Modification time:	15. 06. 2019 19:32

#	Program:	/corina/corina34_cracker 3.40 0067  02.08.2006

@<TRIPOS>MOLECULE
ASD01814611
  60   63    0    0    0
SMALL
NO_CHARGES


@<TRIPOS>ATOM
   1 C1            -0.4271     0.5856     0.2596 C.2     
   2 C2            -0.1706    -0.7919     0.2817 C.2     
   3 C3             1.1165    -1.2367     0.1993 C.2     
   4 C4             2.1633    -0.3058     0.0938 C.2     
   5 N5             1.8840     1.0337     0.0749 N.am    
   6 C6             0.5937     1.4665     0.1575 C.2     
   7 C7             3.4869    -0.7603     0.0091 C.2     
   8 C8             4.5112     0.1356    -0.0934 C.2     
   9 C9             4.2202     1.5123    -0.1130 C.2     
  10 C10            2.8790     1.9380    -0.0258 C.2     
  11 O11            2.6177     3.1290    -0.0424 O.2     
  12 C12            5.3013     2.4943    -0.2217 C.2     
  13 O13            5.0158     3.8125    -0.2400 O.3     
  14 O14            6.4567     2.1211    -0.2956 O.2     
  15 C15            3.7785    -2.2387     0.0317 C.3     
  16 N16            3.8893    -2.7370    -1.3457 N.3     
  17 C17            5.0568    -2.1614    -2.0206 C.3     
  18 C18            5.2164    -2.7539    -3.3964 C.ar    
  19 C19            4.5890    -3.9274    -3.7601 C.ar    
  20 C20            3.7021    -4.6802    -2.8016 C.3     
  21 C21            3.9597    -4.2067    -1.3708 C.3     
  22 C22            6.0204    -2.0889    -4.3111 C.ar    
  23 C23            6.1991    -2.5936    -5.5822 C.ar    
  24 C24            5.5709    -3.7760    -5.9497 C.ar    
  25 C25            4.7665    -4.4394    -5.0349 C.ar    
  26 N26            5.7476    -4.2955    -7.2371 N.am    
  27 O27            7.1362    -4.7460    -9.0573 O.3     
  28 C28            8.4408    -4.5642    -9.6684 C.3     
  29 C29            9.5195    -5.1390    -8.7482 C.3     
  30 C30            8.4790    -5.2902   -11.0146 C.3     
  31 C31            8.6984    -3.0719    -9.8862 C.3     
  32 C32            6.9363    -4.1656    -7.8589 C.2     
  33 O33            7.8276    -3.5248    -7.3380 O.2     
  34 H34           -1.4438     0.9448     0.3199 H       
  35 H35           -0.9855    -1.4960     0.3636 H       
  36 H36            1.3288    -2.2955     0.2155 H       
  37 H37            0.3844     2.5259     0.1417 H       
  38 H38            5.5331    -0.2079    -0.1582 H       
  39 H39            5.7626     4.4225    -0.3131 H       
  40 H40            4.7160    -2.4160     0.5587 H       
  41 H41            2.9698    -2.7608     0.5431 H       
  42 H42            4.9271    -1.0826    -2.1063 H       
  43 H43            5.9510    -2.3700    -1.4331 H       
  44 H44            2.6580    -4.5024    -3.0591 H       
  45 H45            3.9146    -5.7468    -2.8737 H       
  46 H46            4.9495    -4.5316    -1.0501 H       
  47 H47            3.2018    -4.6211    -0.7059 H       
  48 H48            6.5096    -1.1693    -4.0258 H       
  49 H49            6.8254    -2.0704    -6.2896 H       
  50 H50            4.2767    -5.3594    -5.3177 H       
  51 H51            5.0146    -4.7490    -7.6820 H       
  52 H52            9.3360    -6.2022    -8.5930 H       
  53 H53           10.4988    -5.0026    -9.2069 H       
  54 H54            9.4923    -4.6218    -7.7891 H       
  55 H55            7.7104    -4.8807   -11.6702 H       
  56 H56            9.4583    -5.1538   -11.4733 H       
  57 H57            8.2954    -6.3534   -10.8594 H       
  58 H58            8.6712    -2.5547    -8.9271 H       
  59 H59            9.6777    -2.9354   -10.3449 H       
  60 H60            7.9299    -2.6624   -10.5418 H       
@<TRIPOS>BOND
   1    1    2 1
   2    1    6 2
   3    1   34 1
   4    2    3 2
   5    2   35 1
   6    3    4 1
   7    3   36 1
   8    4    5 1
   9    4    7 2
  10    5    6 1
  11    5   10 am
  12    6   37 1
  13    7    8 1
  14    7   15 1
  15    8    9 2
  16    8   38 1
  17    9   10 1
  18    9   12 1
  19   10   11 2
  20   12   13 1
  21   12   14 2
  22   13   39 1
  23   15   16 1
  24   15   40 1
  25   15   41 1
  26   16   17 1
  27   16   21 1
  28   17   18 1
  29   17   42 1
  30   17   43 1
  31   18   19 ar
  32   18   22 ar
  33   19   20 1
  34   19   25 ar
  35   20   21 1
  36   20   44 1
  37   20   45 1
  38   21   46 1
  39   21   47 1
  40   22   23 ar
  41   22   48 1
  42   23   24 ar
  43   23   49 1
  44   24   25 ar
  45   24   26 1
  46   25   50 1
  47   26   32 am
  48   26   51 1
  49   27   28 1
  50   27   32 1
  51   28   29 1
  52   28   30 1
  53   28   31 1
  54   29   52 1
  55   29   53 1
  56   29   54 1
  57   30   55 1
  58   30   56 1
  59   30   57 1
  60   31   58 1
  61   31   59 1
  62   31   60 1
  63   32   33 2

#	End of record

