#	Name: ASD03430573
#	Creating user name:	WinNT
#	Creation time:	15. 06. 2019 20:41

#	Modifying user name:	WinNT
#	Modification time:	15. 06. 2019 20:41

#	Program:	/corina/corina34_cracker 3.40 0067  02.08.2006

@<TRIPOS>MOLECULE
ASD03430573
  58   63    0    0    0
SMALL
NO_CHARGES


@<TRIPOS>ATOM
   1 N1            -0.0157     1.4931     0.4901 N.am    
   2 C2             0.0409     0.2262     0.9342 C.2     
   3 C3             1.4805    -0.0489     1.3137 C.3     
   4 C4             2.1943     1.2487     1.0119 C.ar    
   5 C5             3.5075     1.6464     1.1355 C.ar    
   6 C6             3.8773     2.9298     0.7694 C.ar    
   7 C7             2.9260     3.8066     0.2811 C.ar    
   8 C8             1.6104     3.4106     0.1570 C.ar    
   9 C9             1.2302     2.1206     0.5228 C.ar    
  10 O10           -0.8869    -0.5506     1.0163 O.2     
  11 O11            1.8751    -1.2721     6.8069 O.3     
  12 C12            2.0713    -2.6456     7.1603 C.3     
  13 C13            3.1721    -3.2210     6.2589 C.3     
  14 O14            2.7447    -3.1010     4.8977 O.3     
  15 C15            2.2184    -1.9014     4.5248 C.ar    
  16 C16            1.7824    -0.9891     5.4788 C.ar    
  17 C17            2.1196    -1.5925     3.1769 C.ar    
  18 C18            1.5859    -0.3809     2.7798 C.ar    
  19 C19            1.1478     0.5295     3.7295 C.ar    
  20 C20            1.2462     0.2253     5.0787 C.ar    
  21 O21            0.6222     1.7209     3.3377 O.3     
  22 O22            2.0137    -1.1102     0.5191 O.3     
  23 C23           -1.2434     2.1395     0.0197 C.3     
  24 C24           -0.9991     2.7579    -1.3326 C.ar    
  25 C25           -1.5151     4.0066    -1.6250 C.ar    
  26 C26           -1.2910     4.5739    -2.8655 C.ar    
  27 C27           -0.5506     3.8927    -3.8135 C.ar    
  28 C28           -0.0339     2.6444    -3.5208 C.ar    
  29 C29           -0.2543     2.0790    -2.2788 C.ar    
  30 C30           -2.3417     1.1133    -0.0882 C.ar    
  31 C31           -3.4804     1.2356     0.6859 C.ar    
  32 C32           -4.4879     0.2942     0.5870 C.ar    
  33 C33           -4.3568    -0.7692    -0.2864 C.ar    
  34 C34           -3.2185    -0.8910    -1.0612 C.ar    
  35 C35           -2.2130     0.0527    -0.9654 C.ar    
  36 Br36           4.8027     0.4420     1.8045 Br      
  37 H37            4.9058     3.2450     0.8653 H       
  38 H38            3.2146     4.8074    -0.0043 H       
  39 H39            0.8735     4.1017    -0.2245 H       
  40 H40            2.3765    -2.7165     8.2043 H       
  41 H41            1.1451    -3.2000     7.0090 H       
  42 H42            4.0963    -2.6618     6.4047 H       
  43 H43            3.3348    -4.2710     6.5020 H       
  44 H44            2.4599    -2.3002     2.4355 H       
  45 H45            0.9047     0.9344     5.8182 H       
  46 H46           -0.3349     1.7025     3.2009 H       
  47 H47            1.5529    -1.9532     0.6285 H       
  48 H48           -1.5391     2.9153     0.7260 H       
  49 H49           -2.0935     4.5388    -0.8843 H       
  50 H50           -1.6947     5.5491    -3.0942 H       
  51 H51           -0.3762     4.3356    -4.7829 H       
  52 H52            0.5442     2.1120    -4.2616 H       
  53 H53            0.1525     1.1053    -2.0488 H       
  54 H54           -3.5828     2.0664     1.3683 H       
  55 H55           -5.3772     0.3894     1.1923 H       
  56 H56           -5.1436    -1.5050    -0.3632 H       
  57 H57           -3.1160    -1.7220    -1.7433 H       
  58 H58           -1.3252    -0.0405    -1.5734 H       
@<TRIPOS>BOND
   1    1    2 am
   2    1    9 1
   3    1   23 1
   4    2    3 1
   5    2   10 2
   6    3    4 1
   7    3   18 1
   8    3   22 1
   9    4    5 ar
  10    4    9 ar
  11    5    6 ar
  12    5   36 1
  13    6    7 ar
  14    6   37 1
  15    7    8 ar
  16    7   38 1
  17    8    9 ar
  18    8   39 1
  19   11   12 1
  20   11   16 1
  21   12   13 1
  22   12   40 1
  23   12   41 1
  24   13   14 1
  25   13   42 1
  26   13   43 1
  27   14   15 1
  28   15   16 ar
  29   15   17 ar
  30   16   20 ar
  31   17   18 ar
  32   17   44 1
  33   18   19 ar
  34   19   20 ar
  35   19   21 1
  36   20   45 1
  37   21   46 1
  38   22   47 1
  39   23   24 1
  40   23   30 1
  41   23   48 1
  42   24   25 ar
  43   24   29 ar
  44   25   26 ar
  45   25   49 1
  46   26   27 ar
  47   26   50 1
  48   27   28 ar
  49   27   51 1
  50   28   29 ar
  51   28   52 1
  52   29   53 1
  53   30   31 ar
  54   30   35 ar
  55   31   32 ar
  56   31   54 1
  57   32   33 ar
  58   32   55 1
  59   33   34 ar
  60   33   56 1
  61   34   35 ar
  62   34   57 1
  63   35   58 1

#	End of record

