#	Name: ASD02039400
#	Creating user name:	WinNT
#	Creation time:	15. 06. 2019 20:18

#	Modifying user name:	WinNT
#	Modification time:	15. 06. 2019 20:18

#	Program:	/corina/corina34_cracker 3.40 0067  02.08.2006

@<TRIPOS>MOLECULE
ASD02039400
  50   52    0    0    0
SMALL
NO_CHARGES


@<TRIPOS>ATOM
   1 C1            -0.0251     1.2487     0.5816 C.ar    
   2 C2             0.2209    -0.1038     0.7693 C.ar    
   3 C3            -0.8411    -0.9893     0.7936 C.ar    
   4 C4            -2.3574     0.7208     0.4697 C.ar    
   5 C5            -1.3360     1.6670     0.4294 C.ar    
   6 C6            -3.7673     1.1529     0.3077 C.ar    
   7 C7             1.1088     2.2409     0.5504 C.3     
   8 N8             1.6201     2.3552    -0.8177 N.am    
   9 C9             0.9599     3.2470    -1.7743 C.3     
  10 C10            2.6978     1.6400    -1.1963 C.2     
  11 C11            3.2891     0.6548    -0.2743 C.2     
  12 C12            4.3002    -0.2144    -0.5629 C.2     
  13 N13            2.9310     0.4504     1.0192 N.2     
  14 C14            3.6712    -0.4980     1.5161 C.2     
  15 N15            4.5326    -0.9336     0.5603 N.pl3   
  16 O16            3.1823     1.8079    -2.2992 O.2     
  17 C17            5.5331    -1.9923     0.7166 C.3     
  18 C18           -4.2479     2.2510     1.0182 C.ar    
  19 N19           -2.0789    -0.5652     0.6407 N.ar    
  20 C20            1.9132     4.3812    -2.1559 C.3     
  21 C21            0.5787     2.4576    -3.0283 C.3     
  22 C22           -4.6138     0.4655    -0.5599 C.ar    
  23 C23           -5.9249     0.8712    -0.7081 C.ar    
  24 C24           -6.4000     1.9583     0.0020 C.ar    
  25 C25           -5.5624     2.6492     0.8628 C.ar    
  26 C26           -4.0984    -0.7191    -1.3358 C.3     
  27 F27           -6.0322     3.7104     1.5544 F       
  28 H28            1.2321    -0.4617     0.8949 H       
  29 H29           -0.6531    -2.0427     0.9395 H       
  30 H30           -1.5641     2.7134     0.2901 H       
  31 H31            0.7497     3.2136     0.8866 H       
  32 H32            1.9075     1.9007     1.2095 H       
  33 H33            0.0610     3.6649    -1.3209 H       
  34 H34            4.8162    -0.3106    -1.5067 H       
  35 H35            3.6122    -0.8755     2.5263 H       
  36 H36            5.0905    -2.9525     0.4513 H       
  37 H37            6.3813    -1.7901     0.0625 H       
  38 H38            5.8718    -2.0221     1.7522 H       
  39 H39           -3.5950     2.7895     1.6891 H       
  40 H40            2.8206     3.9623    -2.5908 H       
  41 H41            1.4293     5.0334    -2.8830 H       
  42 H42            2.1687     4.9561    -1.2657 H       
  43 H43           -0.1454     1.6862    -2.7659 H       
  44 H44            0.1402     3.1326    -3.7632 H       
  45 H45            1.4697     1.9915    -3.4490 H       
  46 H46           -6.5810     0.3384    -1.3805 H       
  47 H47           -7.4264     2.2724    -0.1177 H       
  48 H48           -4.1628    -1.6144    -0.7175 H       
  49 H49           -4.7000    -0.8542    -2.2347 H       
  50 H50           -3.0596    -0.5454    -1.6166 H       
@<TRIPOS>BOND
   1    1    2 ar
   2    1    7 1
   3    1    5 ar
   4    2    3 ar
   5    2   28 1
   6    3   19 ar
   7    3   29 1
   8    4    5 ar
   9    4    6 1
  10    4   19 ar
  11    5   30 1
  12    6   18 ar
  13    6   22 ar
  14    7    8 1
  15    7   31 1
  16    7   32 1
  17    8    9 1
  18    8   10 am
  19    9   20 1
  20    9   21 1
  21    9   33 1
  22   10   11 1
  23   10   16 2
  24   11   12 2
  25   11   13 1
  26   12   15 1
  27   12   34 1
  28   13   14 2
  29   14   15 1
  30   14   35 1
  31   15   17 1
  32   17   36 1
  33   17   37 1
  34   17   38 1
  35   18   25 ar
  36   18   39 1
  37   20   40 1
  38   20   41 1
  39   20   42 1
  40   21   43 1
  41   21   44 1
  42   21   45 1
  43   22   23 ar
  44   22   26 1
  45   23   24 ar
  46   23   46 1
  47   24   25 ar
  48   24   47 1
  49   25   27 1
  50   26   48 1
  51   26   49 1
  52   26   50 1

#	End of record

