#	Name: ASD00170190
#	Creating user name:	WinNT
#	Creation time:	15. 06. 2019 18:31

#	Modifying user name:	WinNT
#	Modification time:	15. 06. 2019 18:31

#	Program:	/corina/corina34_cracker 3.40 0067  02.08.2006

@<TRIPOS>MOLECULE
ASD00170190
  36   38    0    0    0
SMALL
NO_CHARGES


@<TRIPOS>ATOM
   1 C1            -0.0144     1.3329    -0.1102 C.2     
   2 C2             0.0055    -0.0012    -0.1405 C.2     
   3 C3            -1.3205    -0.5793     0.0267 C.2     
   4 C4            -2.3073     0.3600     0.1724 C.2     
   5 S5            -1.6531     1.9297     0.1174 S.3     
   6 C6             1.2015     2.2261    -0.2455 C.3     
   7 C7             2.0518     1.7763    -1.4323 C.3     
   8 C8             3.0745     0.7480    -0.9568 C.3     
   9 C9             2.4800    -0.0896     0.1732 C.3     
  10 C10            1.2552    -0.8422    -0.3374 C.3     
  11 N11           -3.6460     0.0726     0.3443 N.pl3   
  12 C12           -1.5738    -2.0197     0.0376 C.2     
  13 C13           -1.8293    -2.7354    -1.2317 C.ar    
  14 O14           -1.5745    -2.6298     1.0914 O.2     
  15 C15           -1.9616    -4.1244    -1.2383 C.ar    
  16 C16           -2.2000    -4.7863    -2.4267 C.ar    
  17 C17           -2.3071    -4.0741    -3.6092 C.ar    
  18 C18           -2.1763    -2.6967    -3.6083 C.ar    
  19 C19           -1.9447    -2.0234    -2.4268 C.ar    
  20 Cl20          -2.3650    -6.5144    -2.4380 Cl      
  21 H21            0.8785     3.2554    -0.4015 H       
  22 H22            1.7951     2.1695     0.6669 H       
  23 H23            1.4101     1.3277    -2.1907 H       
  24 H24            2.5703     2.6366    -1.8555 H       
  25 H25            3.3456     0.0960    -1.7871 H       
  26 H26            3.9651     1.2628    -0.5962 H       
  27 H27            3.2240    -0.8039     0.5256 H       
  28 H28            2.1876     0.5644     0.9947 H       
  29 H29            1.1512    -1.7781     0.2117 H       
  30 H30            1.3809    -1.0598    -1.3980 H       
  31 H31           -3.9556    -0.8452     0.2921 H       
  32 H32           -4.2774     0.7884     0.5173 H       
  33 H33           -1.8774    -4.6806    -0.3164 H       
  34 H34           -2.4932    -4.5960    -4.5362 H       
  35 H35           -2.2602    -2.1470    -4.5341 H       
  36 H36           -1.8429    -0.9482    -2.4279 H       
@<TRIPOS>BOND
   1    1    2 2
   2    1    6 1
   3    1    5 1
   4    2    3 1
   5    2   10 1
   6    3    4 2
   7    3   12 1
   8    4    5 1
   9    4   11 1
  10    6    7 1
  11    6   21 1
  12    6   22 1
  13    7    8 1
  14    7   23 1
  15    7   24 1
  16    8    9 1
  17    8   25 1
  18    8   26 1
  19    9   10 1
  20    9   27 1
  21    9   28 1
  22   10   29 1
  23   10   30 1
  24   11   31 1
  25   11   32 1
  26   12   13 1
  27   12   14 2
  28   13   15 ar
  29   13   19 ar
  30   15   16 ar
  31   15   33 1
  32   16   17 ar
  33   16   20 1
  34   17   18 ar
  35   17   34 1
  36   18   19 ar
  37   18   35 1
  38   19   36 1

#	End of record

