#	Name: ASD01148883
#	Creating user name:	WinNT
#	Creation time:	15. 06. 2019 19:03

#	Modifying user name:	WinNT
#	Modification time:	15. 06. 2019 19:03

#	Program:	/corina/corina34_cracker 3.40 0067  02.08.2006

@<TRIPOS>MOLECULE
ASD01148883
  45   47    0    0    0
SMALL
NO_CHARGES


@<TRIPOS>ATOM
   1 N1            -0.0051     1.3227     0.2835 N.pl3   
   2 C2             0.0086    -0.0112    -0.0435 C.2     
   3 C3             1.2972    -0.3624    -0.3127 C.2     
   4 C4             2.0888     0.7861    -0.1457 C.2     
   5 C5             1.2728     1.7991     0.2174 C.2     
   6 C6            -1.1407     2.0706     0.6221 C.ar    
   7 C7            -1.2986     2.5484     1.9164 C.ar    
   8 C8            -2.4188     3.2851     2.2471 C.ar    
   9 C9            -3.3832     3.5467     1.2909 C.ar    
  10 C10           -3.2291     3.0720     0.0016 C.ar    
  11 C11           -2.1075     2.3401    -0.3370 C.ar    
  12 S12           -2.6200     3.8918     3.8891 S.o2    
  13 O13           -4.0266     4.0196     4.0455 O.2     
  14 O14           -1.8729     2.9873     4.6909 O.2     
  15 C15           -1.8301     6.1093     5.2820 C.3     
  16 C16           -1.8309     5.5250     3.8680 C.3     
  17 C17           -0.3901     5.3889     3.3716 C.3     
  18 C18            1.7003     3.2160     0.5013 C.3     
  19 C19           -1.1664    -0.9070    -0.0943 C.ar    
  20 C20           -2.3332    -0.5719     0.5945 C.ar    
  21 C21           -3.4263    -1.4117     0.5433 C.ar    
  22 C22           -3.3675    -2.5854    -0.1890 C.ar    
  23 C23           -2.2127    -2.9233    -0.8744 C.ar    
  24 C24           -1.1153    -2.0884    -0.8359 C.ar    
  25 Cl25          -4.7468    -3.6379    -0.2477 Cl      
  26 H26            1.6458    -1.3430    -0.6014 H       
  27 H27            3.1583     0.8478    -0.2831 H       
  28 H28           -0.5462     2.3437     2.6637 H       
  29 H29           -4.2586     4.1228     1.5520 H       
  30 H30           -3.9840     3.2776    -0.7428 H       
  31 H31           -1.9851     1.9739    -1.3456 H       
  32 H32           -1.2773     5.4472     5.9485 H       
  33 H33           -1.3560     7.0907     5.2694 H       
  34 H34           -2.8566     6.2063     5.6357 H       
  35 H35           -2.3838     6.1871     3.2016 H       
  36 H36            0.0841     6.3703     3.3590 H       
  37 H37            0.1628     4.7268     4.0381 H       
  38 H38           -0.3906     4.9726     2.3643 H       
  39 H39            1.9442     3.3170     1.5588 H       
  40 H40            2.5776     3.4579    -0.0987 H       
  41 H41            0.8883     3.8980     0.2490 H       
  42 H42           -2.3801     0.3429     1.1666 H       
  43 H43           -4.3297    -1.1535     1.0759 H       
  44 H44           -2.1727    -3.8400    -1.4440 H       
  45 H45           -0.2166    -2.3507    -1.3745 H       
@<TRIPOS>BOND
   1    1    2 1
   2    1    5 1
   3    1    6 1
   4    2    3 2
   5    2   19 1
   6    3    4 1
   7    3   26 1
   8    4    5 2
   9    4   27 1
  10    5   18 1
  11    6    7 ar
  12    6   11 ar
  13    7    8 ar
  14    7   28 1
  15    8    9 ar
  16    8   12 1
  17    9   10 ar
  18    9   29 1
  19   10   11 ar
  20   10   30 1
  21   11   31 1
  22   12   13 2
  23   12   14 2
  24   12   16 1
  25   15   16 1
  26   15   32 1
  27   15   33 1
  28   15   34 1
  29   16   17 1
  30   16   35 1
  31   17   36 1
  32   17   37 1
  33   17   38 1
  34   18   39 1
  35   18   40 1
  36   18   41 1
  37   19   20 ar
  38   19   24 ar
  39   20   21 ar
  40   20   42 1
  41   21   22 ar
  42   21   43 1
  43   22   23 ar
  44   22   25 1
  45   23   24 ar
  46   23   44 1
  47   24   45 1

#	End of record

