#	Name: ASD02038606
#	Creating user name:	WinNT
#	Creation time:	15. 06. 2019 20:17

#	Modifying user name:	WinNT
#	Modification time:	15. 06. 2019 20:17

#	Program:	/corina/corina34_cracker 3.40 0067  02.08.2006

@<TRIPOS>MOLECULE
ASD02038606
  47   48    0    0    0
SMALL
NO_CHARGES


@<TRIPOS>ATOM
   1 C1            -0.2810     0.9110     1.1882 C.ar    
   2 C2            -0.2839    -0.4679     1.0715 C.ar    
   3 C3            -1.4762    -1.1461     0.9108 C.ar    
   4 C4            -2.6732    -0.4429     0.8668 C.ar    
   5 C5            -2.6674     0.9410     0.9846 C.ar    
   6 C6            -1.4726     1.6137     1.1504 C.ar    
   7 N7            -3.8810    -1.1265     0.7038 N.pl3   
   8 C8            -5.1428    -0.3835     0.6576 C.3     
   9 C9            -6.3044    -1.3621     0.4735 C.3     
  10 N10           -7.5696    -0.6170     0.4271 N.3     
  11 C11           -8.7099    -1.5263     0.2508 C.3     
  12 C12          -10.0067    -0.7156     0.2073 C.3     
  13 O13          -10.0071     0.1205    -0.9516 O.3     
  14 C14          -11.0966     0.9121    -1.1415 C.ar    
  15 Cl15           1.2196     1.7604     1.3895 Cl      
  16 C16          -11.1618     1.7481    -2.2463 C.ar    
  17 C17          -12.1443     0.8788    -0.2332 C.ar    
  18 C18          -13.2512     1.6820    -0.4254 C.ar    
  19 C19          -13.3149     2.5234    -1.5282 C.ar    
  20 C20          -12.2678     2.5523    -2.4399 C.ar    
  21 N21          -14.4361     3.3376    -1.7238 N.am    
  22 S22          -14.6472     4.6930    -0.7960 S.o2    
  23 C23          -13.2321     5.7498    -1.2100 C.3     
  24 O24          -15.8548     5.2644    -1.2800 O.2     
  25 O25          -14.5437     4.2222     0.5407 O.2     
  26 H26            0.6472    -1.0141     1.1058 H       
  27 H27           -1.4778    -2.2222     0.8191 H       
  28 H28           -3.5966     1.4903     0.9504 H       
  29 H29           -1.4675     2.6897     1.2424 H       
  30 H30           -3.8840    -2.0930     0.6213 H       
  31 H31           -5.2750     0.1663     1.5894 H       
  32 H32           -5.1217     0.3167    -0.1775 H       
  33 H33           -6.1722    -1.9119    -0.4583 H       
  34 H34           -6.3255    -2.0622     1.3086 H       
  35 H35           -7.6849    -0.0484     1.2526 H       
  36 H36           -8.5943    -2.0772    -0.6826 H       
  37 H37           -8.7476    -2.2276     1.0844 H       
  38 H38          -10.8584    -1.3945     0.1658 H       
  39 H39          -10.0785    -0.0968     1.1017 H       
  40 H40          -10.3474     1.7704    -2.9552 H       
  41 H41          -12.0946     0.2243     0.6245 H       
  42 H42          -14.0672     1.6555     0.2816 H       
  43 H43          -12.3165     3.2064    -3.2979 H       
  44 H44          -15.0896     3.1081    -2.4029 H       
  45 H45          -13.1983     5.9058    -2.2882 H       
  46 H46          -13.3371     6.7111    -0.7069 H       
  47 H47          -12.3107     5.2676    -0.8835 H       
@<TRIPOS>BOND
   1    1    2 ar
   2    1   15 1
   3    1    6 ar
   4    2    3 ar
   5    2   26 1
   6    3    4 ar
   7    3   27 1
   8    4    5 ar
   9    4    7 1
  10    5    6 ar
  11    5   28 1
  12    6   29 1
  13    7    8 1
  14    7   30 1
  15    8    9 1
  16    8   31 1
  17    8   32 1
  18    9   10 1
  19    9   33 1
  20    9   34 1
  21   10   11 1
  22   10   35 1
  23   11   12 1
  24   11   36 1
  25   11   37 1
  26   12   13 1
  27   12   38 1
  28   12   39 1
  29   13   14 1
  30   14   16 ar
  31   14   17 ar
  32   16   20 ar
  33   16   40 1
  34   17   18 ar
  35   17   41 1
  36   18   19 ar
  37   18   42 1
  38   19   20 ar
  39   19   21 1
  40   20   43 1
  41   21   22 am
  42   21   44 1
  43   22   23 1
  44   22   24 2
  45   22   25 2
  46   23   45 1
  47   23   46 1
  48   23   47 1

#	End of record

