#	Name: ASD01940651
#	Creating user name:	WinNT
#	Creation time:	15. 06. 2019 20:12

#	Modifying user name:	WinNT
#	Modification time:	15. 06. 2019 20:12

#	Program:	/corina/corina34_cracker 3.40 0067  02.08.2006

@<TRIPOS>MOLECULE
ASD01940651
  50   53    0    0    0
SMALL
NO_CHARGES


@<TRIPOS>ATOM
   1 C1             0.6682     3.5309    -2.9866 C.3     
   2 C2             1.1334     2.7470    -4.2155 C.3     
   3 C3             1.0081     4.2704    -4.2822 C.3     
   4 S4            -1.0824     3.4070    -2.5275 S.o2    
   5 O5            -1.9062     3.9434    -3.5535 O.2     
   6 O6            -1.3590     2.1360    -1.9553 O.2     
   7 N7            -1.2554     4.4682    -1.2681 N.am    
   8 C8            -0.9898     5.8308    -1.4586 C.ar    
   9 C9            -0.4099     6.5792    -0.4349 C.ar    
  10 C10           -0.1491     7.9288    -0.6291 C.ar    
  11 C11           -0.4655     8.5276    -1.8386 C.ar    
  12 C12           -1.0415     7.7826    -2.8529 C.ar    
  13 C13           -1.2979     6.4361    -2.6672 C.ar    
  14 N14           -0.0917     5.9708     0.7869 N.pl3   
  15 C15            0.5462     8.3113     4.1779 C.ar    
  16 C16           -0.7461     8.1400     3.6823 C.ar    
  17 C17           -0.9560     7.3648     2.5602 C.ar    
  18 C18            0.1219     6.7552     1.9233 C.ar    
  19 C19            1.4094     6.9256     2.4168 C.ar    
  20 C20            1.6228     7.6995     3.5385 C.ar    
  21 C21            0.7753     9.1490     5.3804 C.ar    
  22 C22            2.0667     9.3207     5.8763 C.ar    
  23 C23            2.2766    10.1006     6.9942 C.ar    
  24 C24            1.2032    10.7140     7.6258 C.ar    
  25 C25           -0.0840    10.5450     7.1344 C.ar    
  26 C26           -0.2997     9.7710     6.0134 C.ar    
  27 O27            1.4131    11.4811     8.7277 O.3     
  28 C28            0.2642    12.0827     9.3277 C.3     
  29 F29           -0.6290    11.0837     9.7297 F       
  30 F30            0.6582    12.8318    10.4417 F       
  31 F31           -0.3615    12.9216     8.3993 F       
  32 F32           -2.2073     7.1979     2.0790 F       
  33 F33           -0.2116     9.8410    -2.0275 F       
  34 F34            0.4122     8.6581     0.3599 F       
  35 H35            1.3669     3.6248    -2.1554 H       
  36 H36            2.1383     2.3253    -4.1926 H       
  37 H37            0.3876     2.1569    -4.7480 H       
  38 H38            0.1798     4.6825    -4.8586 H       
  39 H39            1.9304     4.8509    -4.3032 H       
  40 H40           -1.5405     4.1466    -0.3985 H       
  41 H41           -1.2869     8.2528    -3.7937 H       
  42 H42           -1.7430     5.8569    -3.4627 H       
  43 H43           -0.0197     5.0051     0.8435 H       
  44 H44           -1.5817     8.6130     4.1766 H       
  45 H45            2.2440     6.4517     1.9216 H       
  46 H46            2.6241     7.8310     3.9213 H       
  47 H47            2.9020     8.8431     5.3857 H       
  48 H48            3.2769    10.2339     7.3789 H       
  49 H49           -0.9171    11.0232     7.6281 H       
  50 H50           -1.3008     9.6435     5.6289 H       
@<TRIPOS>BOND
   1    1    2 1
   2    1    3 1
   3    1    4 1
   4    1   35 1
   5    2    3 1
   6    2   36 1
   7    2   37 1
   8    3   38 1
   9    3   39 1
  10    4    5 2
  11    4    6 2
  12    4    7 am
  13    7    8 1
  14    7   40 1
  15    8    9 ar
  16    8   13 ar
  17    9   10 ar
  18    9   14 1
  19   10   11 ar
  20   10   34 1
  21   11   12 ar
  22   11   33 1
  23   12   13 ar
  24   12   41 1
  25   13   42 1
  26   14   18 1
  27   14   43 1
  28   15   16 ar
  29   15   20 ar
  30   15   21 1
  31   16   17 ar
  32   16   44 1
  33   17   18 ar
  34   17   32 1
  35   18   19 ar
  36   19   20 ar
  37   19   45 1
  38   20   46 1
  39   21   22 ar
  40   21   26 ar
  41   22   23 ar
  42   22   47 1
  43   23   24 ar
  44   23   48 1
  45   24   25 ar
  46   24   27 1
  47   25   26 ar
  48   25   49 1
  49   26   50 1
  50   27   28 1
  51   28   29 1
  52   28   30 1
  53   28   31 1

#	End of record

