#	Name: ASD02038667
#	Creating user name:	WinNT
#	Creation time:	15. 06. 2019 20:17

#	Modifying user name:	WinNT
#	Modification time:	15. 06. 2019 20:17

#	Program:	/corina/corina34_cracker 3.40 0067  02.08.2006

@<TRIPOS>MOLECULE
ASD02038667
  50   52    0    0    0
SMALL
NO_CHARGES


@<TRIPOS>ATOM
   1 C1             7.3251    -1.7511    -2.4200 C.ar    
   2 C2             5.9782    -1.9107    -2.1583 C.ar    
   3 C3             5.5494    -2.9385    -1.3316 C.ar    
   4 O4             4.2235    -3.0953    -1.0736 O.3     
   5 C5             3.8531    -4.1749    -0.2137 C.3     
   6 C6             2.3329    -4.1915    -0.0419 C.3     
   7 N7             1.6975    -4.4896    -1.3323 N.3     
   8 C8             1.8196    -5.9153    -1.6623 C.3     
   9 C9             1.2784    -6.1621    -3.0723 C.3     
  10 C10            0.2928    -4.0616    -1.3385 C.3     
  11 C11           -0.2941    -4.2531    -2.7389 C.3     
  12 C12           -0.1889    -5.7288    -3.1336 C.3     
  13 C13           -0.7184    -5.9164    -4.5568 C.3     
  14 C14           -2.1196    -5.3691    -4.6476 C.ar    
  15 C15           -2.3239    -4.0465    -4.9936 C.ar    
  16 C16           -3.6092    -3.5445    -5.0770 C.ar    
  17 C17           -4.6901    -4.3652    -4.8147 C.ar    
  18 C18           -4.4858    -5.6881    -4.4696 C.ar    
  19 C19           -3.2007    -6.1913    -4.3905 C.ar    
  20 C20            8.2486    -2.6188    -1.8563 C.ar    
  21 C21            7.8198    -3.6467    -1.0296 C.ar    
  22 C22            6.4729    -3.8068    -0.7686 C.ar    
  23 O23            9.5745    -2.4620    -2.1143 O.3     
  24 O24           -0.9592    -6.5215    -2.2278 O.3     
  25 O25            2.0395    -5.4043    -4.0149 O.3     
  26 H26            7.6586    -0.9535    -3.0673 H       
  27 H27            5.2591    -1.2348    -2.5970 H       
  28 H28            4.1795    -5.1176    -0.6530 H       
  29 H29            4.3273    -4.0438     0.7589 H       
  30 H30            2.0577    -4.9567     0.6840 H       
  31 H31            1.9966    -3.2171     0.3123 H       
  32 H32            2.8683    -6.2095    -1.6191 H       
  33 H33            1.2476    -6.5043    -0.9454 H       
  34 H34            1.3555    -7.2228    -3.3112 H       
  35 H35           -0.2722    -4.6593    -0.6232 H       
  36 H36            0.2324    -3.0095    -1.0602 H       
  37 H37           -1.3411    -3.9500    -2.7393 H       
  38 H38            0.2617    -3.6450    -3.4526 H       
  39 H39           -0.0744    -5.3844    -5.2571 H       
  40 H40           -0.7261    -6.9778    -4.8046 H       
  41 H41           -1.4794    -3.4052    -5.1985 H       
  42 H42           -3.7688    -2.5109    -5.3466 H       
  43 H43           -5.6943    -3.9728    -4.8791 H       
  44 H44           -5.3304    -6.3293    -4.2644 H       
  45 H45           -3.0411    -7.2248    -4.1209 H       
  46 H46            8.5389    -4.3228    -0.5912 H       
  47 H47            6.1389    -4.6074    -0.1252 H       
  48 H48           10.0313    -1.8835    -1.4884 H       
  49 H49           -1.8997    -6.2974    -2.2111 H       
  50 H50            2.9809    -5.6247    -4.0283 H       
@<TRIPOS>BOND
   1    1    2 ar
   2    1   20 ar
   3    1   26 1
   4    2    3 ar
   5    2   27 1
   6    3    4 1
   7    3   22 ar
   8    4    5 1
   9    5    6 1
  10    5   28 1
  11    5   29 1
  12    6    7 1
  13    6   30 1
  14    6   31 1
  15    7    8 1
  16    7   10 1
  17    8    9 1
  18    8   32 1
  19    8   33 1
  20    9   25 1
  21    9   12 1
  22    9   34 1
  23   10   11 1
  24   10   35 1
  25   10   36 1
  26   11   12 1
  27   11   37 1
  28   11   38 1
  29   12   13 1
  30   12   24 1
  31   13   14 1
  32   13   39 1
  33   13   40 1
  34   14   15 ar
  35   14   19 ar
  36   15   16 ar
  37   15   41 1
  38   16   17 ar
  39   16   42 1
  40   17   18 ar
  41   17   43 1
  42   18   19 ar
  43   18   44 1
  44   19   45 1
  45   20   21 ar
  46   20   23 1
  47   21   22 ar
  48   21   46 1
  49   22   47 1
  50   23   48 1
  51   24   49 1
  52   25   50 1

#	End of record

