#	Name: ASD01120279
#	Creating user name:	WinNT
#	Creation time:	15. 06. 2019 18:59

#	Modifying user name:	WinNT
#	Modification time:	15. 06. 2019 18:59

#	Program:	/corina/corina34_cracker 3.40 0067  02.08.2006

@<TRIPOS>MOLECULE
ASD01120279
  20   19    0    0    0
SMALL
NO_CHARGES


@<TRIPOS>ATOM
   1 N1            -0.0076     1.3505     0.1548 N.3     
   2 N2             0.0064    -0.0145     0.1046 N.pl3   
   3 C3            -1.1958    -0.7241     0.0607 C.ar    
   4 C4            -2.4051    -0.0521     0.1805 C.ar    
   5 C5            -3.5931    -0.7576     0.1362 C.ar    
   6 Cl6           -5.1059     0.0807     0.2857 Cl      
   7 C7            -3.5774    -2.1316    -0.0277 C.ar    
   8 C8            -2.3742    -2.8028    -0.1472 C.ar    
   9 C9            -1.1843    -2.1031    -0.1085 C.ar    
  10 N10            0.1026    -2.8229    -0.2364 N.pl3   
  11 O11            1.0223    -2.3204    -0.8570 O.2     
  12 O12            0.2418    -3.9177     0.2789 O.2     
  13 H13            0.9305     1.7210     0.1822 H       
  14 H14           -0.5259     1.7356    -0.6206 H       
  15 H15            0.8513    -0.4909     0.0993 H       
  16 H16           -2.4175     1.0202     0.3084 H       
  17 H17           -4.5066    -2.6809    -0.0621 H       
  18 H18           -2.3653    -3.8752    -0.2750 H       
  19 Cl19           6.0223     6.7356     5.3084 Cl      
  20 H20            6.0223     8.1056     5.3084 H       
@<TRIPOS>BOND
   1    1    2 1
   2    1   13 1
   3    1   14 1
   4    2    3 1
   5    2   15 1
   6    3    4 ar
   7    3    9 ar
   8    4    5 ar
   9    4   16 1
  10    5    6 1
  11    5    7 ar
  12    7    8 ar
  13    7   17 1
  14    8    9 ar
  15    8   18 1
  16    9   10 1
  17   10   11 2
  18   10   12 2
  19   19   20 1

#	End of record

