#	Name: ASD01814377
#	Creating user name:	WinNT
#	Creation time:	15. 06. 2019 19:32

#	Modifying user name:	WinNT
#	Modification time:	15. 06. 2019 19:32

#	Program:	/corina/corina34_cracker 3.40 0067  02.08.2006

@<TRIPOS>MOLECULE
ASD01814377
  54   58    0    0    0
SMALL
NO_CHARGES


@<TRIPOS>ATOM
   1 C1            -0.0168     1.3866     0.0097 C.ar    
   2 C2             0.0021    -0.0041     0.0020 C.ar    
   3 C3             1.1804    -0.6897    -0.0129 C.ar    
   4 C4             2.3948     0.0130    -0.0208 C.ar    
   5 C5             2.3715     1.4286    -0.0130 C.ar    
   6 C6             1.1460     2.1011     0.0024 C.ar    
   7 C7             3.6299    -0.6695    -0.0358 C.ar    
   8 C8             4.8037     0.0052    -0.0426 C.ar    
   9 C9             4.8383     1.4092    -0.0354 C.ar    
  10 C10            3.6413     2.1518    -0.0213 C.ar    
  11 C11            6.1057     2.1468    -0.0432 C.2     
  12 N12            6.0449     3.4984    -0.0360 N.am    
  13 C13            4.8370     4.1358    -0.0214 C.2     
  14 N14            3.6932     3.4908    -0.0156 N.2     
  15 C15            3.6426    -2.1764    -0.0440 C.3     
  16 O16            7.1750     1.5636    -0.0554 O.2     
  17 C17            3.5100    -2.6722    -1.4609 C.ar    
  18 C18            4.6417    -2.8886    -2.2251 C.ar    
  19 C19            4.5228    -3.3431    -3.5242 C.ar    
  20 C20            3.2665    -3.5824    -4.0619 C.ar    
  21 C21            2.1325    -3.3644    -3.2930 C.ar    
  22 C22            2.2570    -2.9153    -1.9926 C.ar    
  23 C23            7.2286     4.2491    -0.0430 C.ar    
  24 C24            7.8280     4.6162     1.1566 C.ar    
  25 C25            8.9964     5.3566     1.1451 C.ar    
  26 C26            9.5667     5.7311    -0.0574 C.ar    
  27 C27            8.9718     5.3672    -1.2516 C.ar    
  28 C28            7.8083     4.6227    -1.2476 C.ar    
  29 F29            7.2700     4.2509     2.3315 F       
  30 O30            3.1469    -4.0290    -5.3398 O.3     
  31 C31            1.8225    -4.2538    -5.8272 C.3     
  32 S32            4.8126     5.8976    -0.0112 S.3     
  33 C33            3.0259     6.1870     0.0067 C.3     
  34 H34           -0.9629     1.9074     0.0170 H       
  35 H35           -0.9304    -0.5489     0.0084 H       
  36 H36            1.1791    -1.7697    -0.0184 H       
  37 H37            1.1196     3.1807     0.0081 H       
  38 H38            5.7317    -0.5471    -0.0533 H       
  39 H39            4.5810    -2.5341     0.3798 H       
  40 H40            2.8093    -2.5500     0.5512 H       
  41 H41            5.6195    -2.7019    -1.8062 H       
  42 H42            5.4071    -3.5116    -4.1209 H       
  43 H43            1.1534    -3.5500    -3.7093 H       
  44 H44            1.3745    -2.7455    -1.3936 H       
  45 H45            9.4632     5.6426     2.0761 H       
  46 H46           10.4788     6.3095    -0.0641 H       
  47 H47            9.4200     5.6619    -2.1889 H       
  48 H48            7.3449     4.3393    -2.1811 H       
  49 H49            1.8695    -4.6077    -6.8571 H       
  50 H50            1.3297    -5.0031    -5.2077 H       
  51 H51            1.2581    -3.3221    -5.7886 H       
  52 H52            2.5770     5.7429    -0.8818 H       
  53 H53            2.5932     5.7329     0.8981 H       
  54 H54            2.8317     7.2595     0.0145 H       
@<TRIPOS>BOND
   1    1    2 ar
   2    1    6 ar
   3    1   34 1
   4    2    3 ar
   5    2   35 1
   6    3    4 ar
   7    3   36 1
   8    4    5 ar
   9    4    7 ar
  10    5    6 ar
  11    5   10 ar
  12    6   37 1
  13    7    8 ar
  14    7   15 1
  15    8    9 ar
  16    8   38 1
  17    9   10 ar
  18    9   11 1
  19   10   14 1
  20   11   12 am
  21   11   16 2
  22   12   13 1
  23   12   23 1
  24   13   14 2
  25   13   32 1
  26   15   17 1
  27   15   39 1
  28   15   40 1
  29   17   18 ar
  30   17   22 ar
  31   18   19 ar
  32   18   41 1
  33   19   20 ar
  34   19   42 1
  35   20   21 ar
  36   20   30 1
  37   21   22 ar
  38   21   43 1
  39   22   44 1
  40   23   24 ar
  41   23   28 ar
  42   24   25 ar
  43   24   29 1
  44   25   26 ar
  45   25   45 1
  46   26   27 ar
  47   26   46 1
  48   27   28 ar
  49   27   47 1
  50   28   48 1
  51   30   31 1
  52   31   49 1
  53   31   50 1
  54   31   51 1
  55   32   33 1
  56   33   52 1
  57   33   53 1
  58   33   54 1

#	End of record

