#	Name: ASD02039194
#	Creating user name:	WinNT
#	Creation time:	15. 06. 2019 20:17

#	Modifying user name:	WinNT
#	Modification time:	15. 06. 2019 20:17

#	Program:	/corina/corina34_cracker 3.40 0067  02.08.2006

@<TRIPOS>MOLECULE
ASD02039194
  38   41    0    0    0
SMALL
NO_CHARGES


@<TRIPOS>ATOM
   1 N1             0.0020     1.2623     0.3698 N.2     
   2 C2             0.0063    -0.0135     0.0892 C.2     
   3 N3             1.2922    -0.3754    -0.1073 N.2     
   4 C4             1.9960     0.7158     0.0683 C.2     
   5 O5             1.1351     1.6952     0.3618 O.3     
   6 C6             3.4937     0.8426    -0.0397 C.3     
   7 N7            -1.1052    -0.8435     0.0085 N.pl3   
   8 C8            -2.3896    -0.3053     0.1291 C.ar    
   9 C9            -2.6360     1.0026    -0.2681 C.ar    
  10 C10           -3.9081     1.5316    -0.1477 C.ar    
  11 C11           -4.9348     0.7576     0.3683 C.ar    
  12 C12           -4.6905    -0.5440     0.7643 C.ar    
  13 C13           -3.4231    -1.0794     0.6410 C.ar    
  14 C14           -6.3202     1.3360     0.4986 C.3     
  15 F15           -4.1497     2.8037    -0.5331 F       
  16 C16            3.8676     1.1882    -1.4581 C.ar    
  17 C17            3.9580     2.5211    -1.8407 C.ar    
  18 C18            4.2946     2.8605    -3.1202 C.ar    
  19 C19            4.5520     1.8626    -4.0572 C.ar    
  20 C20            4.4614     0.5113    -3.6714 C.ar    
  21 C21            4.1196     0.1893    -2.3530 C.ar    
  22 N22            4.9034     1.8720    -5.3818 N.pl3   
  23 N23            5.0337     0.5533    -5.8295 N.2     
  24 C24            4.7829    -0.2761    -4.8571 C.2     
  25 H25            3.8410     1.6297     0.6297 H       
  26 H26            3.9594    -0.1027     0.2388 H       
  27 H27           -0.9898    -1.7964    -0.1316 H       
  28 H28           -1.8353     1.6057    -0.6700 H       
  29 H29           -5.4928    -1.1448     1.1666 H       
  30 H30           -3.2338    -2.0965     0.9509 H       
  31 H31           -6.8811     1.1453    -0.4163 H       
  32 H32           -6.8307     0.8700     1.3415 H       
  33 H33           -6.2510     2.4110     0.6650 H       
  34 H34            3.7593     3.2982    -1.1175 H       
  35 H35            4.3607     3.9002    -3.4048 H       
  36 H36            4.0476    -0.8441    -2.0477 H       
  37 H37            5.0396     2.6658    -5.9222 H       
  38 H38            4.8089    -1.3541    -4.9174 H       
@<TRIPOS>BOND
   1    1    2 2
   2    1    5 1
   3    2    3 1
   4    2    7 1
   5    3    4 2
   6    4    5 1
   7    4    6 1
   8    6   16 1
   9    6   25 1
  10    6   26 1
  11    7    8 1
  12    7   27 1
  13    8    9 ar
  14    8   13 ar
  15    9   10 ar
  16    9   28 1
  17   10   11 ar
  18   10   15 1
  19   11   12 ar
  20   11   14 1
  21   12   13 ar
  22   12   29 1
  23   13   30 1
  24   14   31 1
  25   14   32 1
  26   14   33 1
  27   16   17 ar
  28   16   21 ar
  29   17   18 ar
  30   17   34 1
  31   18   19 ar
  32   18   35 1
  33   19   20 ar
  34   19   22 1
  35   20   21 ar
  36   20   24 1
  37   21   36 1
  38   22   23 1
  39   22   37 1
  40   23   24 2
  41   24   38 1

#	End of record

