#	Name: ASD05740081
#	Creating user name:	WinNT
#	Creation time:	15. 06. 2019 21:02

#	Modifying user name:	WinNT
#	Modification time:	15. 06. 2019 21:02

#	Program:	/corina/corina34_cracker 3.40 0067  02.08.2006

@<TRIPOS>MOLECULE
ASD05740081
  54   55    0    0    0
SMALL
NO_CHARGES


@<TRIPOS>ATOM
   1 C1            -0.0166     1.3766     0.0096 C.ar    
   2 C2            -2.9572    -0.4751     3.3922 C.2     
   3 C3            -2.4291    -1.5883     4.0338 C.2     
   4 C4            -2.5847    -0.2001     2.0592 C.2     
   5 C5            -1.7110    -1.0393     1.4337 C.2     
   6 C6            -1.2031    -2.1521     2.1233 C.2     
   7 O7            -1.5696    -2.3985     3.3926 O.3     
   8 C8            -1.2931    -0.7744     0.0102 C.3     
   9 C9             0.0021    -0.0041     0.0020 C.ar    
  10 C10            1.2082    -0.6808    -0.0136 C.ar    
  11 O11           -0.4216    -2.9031     1.5644 O.2     
  12 C12            1.1779     2.0860     0.0020 C.ar    
  13 C13            2.3873     1.4033    -0.0132 C.ar    
  14 C14            2.3988     0.0221    -0.0207 C.ar    
  15 N15            1.1626     3.4826     0.0092 N.am    
  16 S16            2.1576     4.3268    -1.0104 S.o2    
  17 O17            1.8839     5.7036    -0.7893 O.2     
  18 O18            3.4526     3.7593    -0.8683 O.2     
  19 N19           -2.9613    -1.5979     5.2928 N.pl3   
  20 C20           -3.7876    -0.5160     5.4002 C.2     
  21 N21           -3.7890     0.1452     4.2731 N.2     
  22 O22           -4.4999    -0.1829     6.5026 O.3     
  23 C23           -3.1430     1.0004     1.3394 C.3     
  24 C24           -4.4987     0.6429     0.7268 C.3     
  25 C25           -5.3112     0.9906     6.4207 C.3     
  26 N26            1.6691     3.9956    -2.5576 N.am    
  27 C27            0.3450     4.4242    -3.0153 C.3     
  28 H28           -0.9588     1.9045     0.0169 H       
  29 H29           -1.1555    -1.7221    -0.5104 H       
  30 H30           -2.0653    -0.1923    -0.4928 H       
  31 H31            1.2200    -1.7607    -0.0199 H       
  32 H32            3.3177     1.9517    -0.0191 H       
  33 H33            3.3389    -0.5094    -0.0322 H       
  34 H34            0.5691     3.9581     0.6114 H       
  35 H35           -2.7841    -2.2543     5.9846 H       
  36 H36           -3.2685     1.8214     2.0454 H       
  37 H37           -2.4556     1.3025     0.5493 H       
  38 H38           -4.9025     1.5112     0.2062 H       
  39 H39           -4.3732    -0.1781     0.0209 H       
  40 H40           -5.1861     0.3408     1.5170 H       
  41 H41           -5.8269     1.1427     7.3688 H       
  42 H42           -4.6810     1.8539     6.2073 H       
  43 H43           -6.0447     0.8703     5.6234 H       
  44 H44            2.2596     3.5178    -3.1609 H       
  45 H45           -0.4215     3.9628    -2.3926 H       
  46 H46            0.2687     5.5090    -2.9416 H       
  47 H47            0.2028     4.1195    -4.0521 H       
  48 C48            8.9798    13.3729    14.2371 C.3     
  49 N49            8.9996    11.9081    14.2291 N.2     
  50 C50            9.5403    11.2955    13.2831 C.1     
  51 O51           10.0629    10.7036    12.3688 O.2     
  52 H52           10.0023    13.7502    14.2294 H       
  53 H53            8.4526    13.7340    13.3541 H       
  54 H54            8.4696    13.7244    15.1339 H       
@<TRIPOS>BOND
   1    1    9 ar
   2    1   12 ar
   3    1   28 1
   4    2    3 2
   5    2    4 1
   6    2   21 1
   7    3   19 1
   8    3    7 1
   9    4    5 2
  10    4   23 1
  11    5    6 1
  12    5    8 1
  13    6    7 1
  14    6   11 2
  15    8    9 1
  16    8   29 1
  17    8   30 1
  18    9   10 ar
  19   10   14 ar
  20   10   31 1
  21   12   13 ar
  22   12   15 1
  23   13   14 ar
  24   13   32 1
  25   14   33 1
  26   15   16 am
  27   15   34 1
  28   16   17 2
  29   16   18 2
  30   16   26 am
  31   19   20 1
  32   19   35 1
  33   20   21 2
  34   20   22 1
  35   22   25 1
  36   23   24 1
  37   23   36 1
  38   23   37 1
  39   24   38 1
  40   24   39 1
  41   24   40 1
  42   25   41 1
  43   25   42 1
  44   25   43 1
  45   26   27 1
  46   26   44 1
  47   27   45 1
  48   27   46 1
  49   27   47 1
  50   48   49 1
  51   48   52 1
  52   48   53 1
  53   48   54 1
  54   49   50 2
  55   50   51 2

#	End of record

