#	Name: ASD01815991
#	Creating user name:	WinNT
#	Creation time:	15. 06. 2019 19:34

#	Modifying user name:	WinNT
#	Modification time:	15. 06. 2019 19:34

#	Program:	/corina/corina34_cracker 3.40 0067  02.08.2006

@<TRIPOS>MOLECULE
ASD01815991
  49   54    0    0    0
SMALL
NO_CHARGES


@<TRIPOS>ATOM
   1 C1            -0.1457     1.2356     0.2102 C.ar    
   2 C2            -0.0726    -0.1478     0.1947 C.ar    
   3 C3             1.1475    -0.7866     0.1152 C.ar    
   4 C4             2.3202    -0.0426     0.0498 C.ar    
   5 C5             2.2427     1.3601     0.0657 C.ar    
   6 C6             1.0064     1.9924     0.1461 C.ar    
   7 N7             3.5478    -0.6773    -0.0296 N.pl3   
   8 C8             4.7122    -0.0118    -0.0948 C.2     
   9 C9             4.7611     1.3600    -0.0872 C.2     
  10 C10            3.4992     2.1302    -0.0047 C.2     
  11 C11            5.8177     2.3655    -0.1440 C.2     
  12 N12            5.1986     3.5649    -0.0978 N.am    
  13 N13            3.8145     3.3935    -0.0148 N.2     
  14 C14            5.8511     4.8039    -0.1285 C.ar    
  15 O15            7.0188     2.1631    -0.2177 O.2     
  16 C16            3.5779    -2.1419    -0.0427 C.3     
  17 C17            6.1953     5.3793    -1.3443 C.ar    
  18 C18            6.8388     6.6012    -1.3714 C.ar    
  19 C19            7.1412     7.2525    -0.1895 C.ar    
  20 C20            6.8007     6.6839     1.0239 C.ar    
  21 C21            6.1507     5.4635     1.0587 C.ar    
  22 F22            5.8174     4.9078     2.2442 F       
  23 C23            3.4314    -2.6348    -1.4593 C.ar    
  24 C24            3.4796    -4.0078    -1.7381 C.ar    
  25 C25            3.3399    -4.4554    -3.0780 C.ar    
  26 C26            3.1558    -3.5138    -4.1021 C.ar    
  27 C27            3.1141    -2.1875    -3.7946 C.ar    
  28 C28            3.2456    -1.7497    -2.4784 C.ar    
  29 C29            3.6636    -4.9723    -0.7304 C.ar    
  30 C30            3.6994    -6.2870    -1.0832 C.ar    
  31 N31            3.5661    -6.6780    -2.3433 N.ar    
  32 C32            3.3916    -5.8353    -3.3341 C.ar    
  33 H33           -1.1076     1.7233     0.2682 H       
  34 H34           -0.9797    -0.7319     0.2456 H       
  35 H35            1.1919    -1.8656     0.1042 H       
  36 H36            0.9484     3.0708     0.1579 H       
  37 H37            5.6345    -0.5706    -0.1543 H       
  38 H38            4.5264    -2.4895     0.3667 H       
  39 H39            2.7577    -2.5276     0.5628 H       
  40 H40            5.9604     4.8716    -2.2681 H       
  41 H41            7.1064     7.0486    -2.3172 H       
  42 H42            7.6450     8.2075    -0.2144 H       
  43 H43            7.0386     7.1949     1.9451 H       
  44 H44            3.0483    -3.8383    -5.1265 H       
  45 H45            2.9727    -1.4636    -4.5835 H       
  46 H46            3.2086    -0.6919    -2.2637 H       
  47 H47            3.7746    -4.6759     0.3022 H       
  48 H48            3.8407    -7.0327    -0.3147 H       
  49 H49            3.2876    -6.2022    -4.3445 H       
@<TRIPOS>BOND
   1    1    2 ar
   2    1    6 ar
   3    1   33 1
   4    2    3 ar
   5    2   34 1
   6    3    4 ar
   7    3   35 1
   8    4    5 ar
   9    4    7 1
  10    5    6 ar
  11    5   10 1
  12    6   36 1
  13    7    8 1
  14    7   16 1
  15    8    9 2
  16    8   37 1
  17    9   10 1
  18    9   11 1
  19   10   13 2
  20   11   12 am
  21   11   15 2
  22   12   13 1
  23   12   14 1
  24   14   17 ar
  25   14   21 ar
  26   16   23 1
  27   16   38 1
  28   16   39 1
  29   17   18 ar
  30   17   40 1
  31   18   19 ar
  32   18   41 1
  33   19   20 ar
  34   19   42 1
  35   20   21 ar
  36   20   43 1
  37   21   22 1
  38   23   24 ar
  39   23   28 ar
  40   24   25 ar
  41   24   29 ar
  42   25   26 ar
  43   25   32 ar
  44   26   27 ar
  45   26   44 1
  46   27   28 ar
  47   27   45 1
  48   28   46 1
  49   29   30 ar
  50   29   47 1
  51   30   31 ar
  52   30   48 1
  53   31   32 ar
  54   32   49 1

#	End of record

