#	Name: ASD00069492
#	Creating user name:	WinNT
#	Creation time:	15. 06. 2019 18:29

#	Modifying user name:	WinNT
#	Modification time:	15. 06. 2019 18:29

#	Program:	/corina/corina34_cracker 3.40 0067  02.08.2006

@<TRIPOS>MOLECULE
ASD00069492
  48   49    0    0    0
SMALL
NO_CHARGES


@<TRIPOS>ATOM
   1 O1            -0.0204     1.4310     0.0086 O.3     
   2 B2             0.0014    -0.0036     0.0030 Du      
   3 O3             1.0717    -0.3525    -0.8865 O.3     
   4 C4            -0.9394    -0.9781     0.7968 C.ar    
   5 C5            -0.7937    -2.3593     0.6874 C.ar    
   6 C6            -1.9410    -0.4825     1.6361 C.ar    
   7 C7            -2.7483    -1.3707     2.3181 C.ar    
   8 N8            -2.5860    -2.6729     2.1879 N.ar    
   9 C9            -1.6484    -3.1859     1.4088 C.ar    
  10 C10            2.1104     0.6083    -0.6027 C.3     
  11 C11            1.3700     1.8175     0.0041 C.3     
  12 C12            1.5752     3.0595    -0.8654 C.3     
  13 C13            1.8553     2.0784     1.4315 C.3     
  14 C14            3.1077     0.0332     0.4051 C.3     
  15 C15            2.8276     1.0144    -1.8918 C.3     
  16 N16           -1.5186    -4.5703     1.3060 N.am    
  17 O17           -2.2230    -6.7116     1.9080 O.3     
  18 C18           -3.0607    -7.5189     2.7768 C.3     
  19 C19           -4.5271    -7.1315     2.5750 C.3     
  20 C20           -2.8725    -8.9984     2.4358 C.3     
  21 C21           -2.6654    -7.2772     4.2349 C.3     
  22 C22           -2.2715    -5.3771     2.0797 C.2     
  23 O23           -2.9942    -4.9001     2.9320 O.2     
  24 H24           -0.0291    -2.7816     0.0521 H       
  25 H25           -2.0815     0.5823     1.7500 H       
  26 H26           -3.5240    -0.9936     2.9681 H       
  27 H27            1.1864     2.8708    -1.8661 H       
  28 H28            1.0464     3.9040    -0.4234 H       
  29 H29            2.6391     3.2887    -0.9262 H       
  30 H30            2.9251     2.2869     1.4190 H       
  31 H31            1.3231     2.9347     1.8454 H       
  32 H32            1.6636     1.1993     2.0468 H       
  33 H33            3.5799    -0.8539    -0.0168 H       
  34 H34            3.8702     0.7795     0.6280 H       
  35 H35            2.5834    -0.2356     1.3221 H       
  36 H36            2.1061     1.4363    -2.5915 H       
  37 H37            3.5907     1.7586    -1.6640 H       
  38 H38            3.2968     0.1377    -2.3382 H       
  39 H39           -0.8863    -4.9527     0.6776 H       
  40 H40           -4.8087    -7.3036     1.5362 H       
  41 H41           -5.1560    -7.7375     3.2272 H       
  42 H42           -4.6612    -6.0774     2.8179 H       
  43 H43           -1.8279    -9.2744     2.5795 H       
  44 H44           -3.5014    -9.6045     3.0879 H       
  45 H45           -3.1542    -9.1706     1.3969 H       
  46 H46           -2.7995    -6.2232     4.4779 H       
  47 H47           -3.2943    -7.8833     4.8871 H       
  48 H48           -1.6207    -7.5532     4.3786 H       
@<TRIPOS>BOND
   1    1    2 1
   2    1   11 1
   3    2    3 1
   4    2    4 1
   5    3   10 1
   6    4    5 ar
   7    4    6 ar
   8    5    9 ar
   9    5   24 1
  10    6    7 ar
  11    6   25 1
  12    7    8 ar
  13    7   26 1
  14    8    9 ar
  15    9   16 1
  16   10   11 1
  17   10   14 1
  18   10   15 1
  19   11   12 1
  20   11   13 1
  21   12   27 1
  22   12   28 1
  23   12   29 1
  24   13   30 1
  25   13   31 1
  26   13   32 1
  27   14   33 1
  28   14   34 1
  29   14   35 1
  30   15   36 1
  31   15   37 1
  32   15   38 1
  33   16   22 am
  34   16   39 1
  35   17   18 1
  36   17   22 1
  37   18   19 1
  38   18   20 1
  39   18   21 1
  40   19   40 1
  41   19   41 1
  42   19   42 1
  43   20   43 1
  44   20   44 1
  45   20   45 1
  46   21   46 1
  47   21   47 1
  48   21   48 1
  49   22   23 2

#	End of record

