#	Name: ASD02588025
#	Creating user name:	WinNT
#	Creation time:	15. 06. 2019 20:25

#	Modifying user name:	WinNT
#	Modification time:	15. 06. 2019 20:25

#	Program:	/corina/corina34_cracker 3.40 0067  02.08.2006

@<TRIPOS>MOLECULE
ASD02588025
  49   51    0    0    0
SMALL
NO_CHARGES


@<TRIPOS>ATOM
   1 C1             0.0102     1.4334    -0.0018 C.2     
   2 N2            -0.0401     0.0678     0.0087 N.pl3   
   3 N3            -1.1864    -0.5247     0.0257 N.2     
   4 C4            -2.3154     0.1483     0.0335 C.2     
   5 N5            -2.3422     1.4875     0.0236 N.2     
   6 C6            -1.2059     2.1656     0.0110 C.2     
   7 C7             1.3550     1.8303    -0.0189 C.2     
   8 C8             2.1313     0.6411    -0.0185 C.2     
   9 C9             1.2368    -0.4276    -0.0012 C.2     
  10 N10           -1.2034     3.5464     0.0006 N.pl3   
  11 C11            1.8600     3.2023    -0.0347 C.2     
  12 C12            3.6002     0.5538    -0.0334 C.2     
  13 C13           -3.5943    -0.5952     0.0531 C.2     
  14 O14           -4.6469     0.0084     0.0605 O.2     
  15 C15           -3.5897    -2.0831     0.0638 C.2     
  16 O16           -2.5419    -2.6840     0.0565 O.2     
  17 C17           -4.8925    -2.8405     0.0839 C.3     
  18 O18            2.1343     3.7359    -1.0898 O.2     
  19 C19            2.0399     3.9539     1.2590 C.3     
  20 C20            4.3323     0.3937    -1.3408 C.3     
  21 O21            4.2215     0.6107     1.0063 O.2     
  22 C22            1.6027    -1.8494     0.0057 C.2     
  23 O23            2.7704    -2.1762     0.0941 O.2     
  24 O24            0.6435    -2.7931    -0.0860 O.3     
  25 C25            1.0783    -4.1784    -0.0730 C.3     
  26 C26           -0.1222    -5.0827    -0.1834 C.ar    
  27 C27           -0.5772    -5.4787    -1.4272 C.ar    
  28 C28           -1.6783    -6.3081    -1.5285 C.ar    
  29 C29           -2.3243    -6.7420    -0.3859 C.ar    
  30 C30           -1.8687    -6.3468     0.8579 C.ar    
  31 C31           -0.7649    -5.5208     0.9594 C.ar    
  32 H32           -2.0397     4.0324    -0.0724 H       
  33 H33           -0.3653     4.0304     0.0664 H       
  34 H34           -5.2180    -3.0305    -0.9389 H       
  35 H35           -4.7535    -3.7888     0.6031 H       
  36 H36           -5.6481    -2.2500     0.6019 H       
  37 H37            3.0715     3.8543     1.5966 H       
  38 H38            1.8091     5.0076     1.1022 H       
  39 H39            1.3693     3.5435     2.0139 H       
  40 H40            4.4905     1.3737    -1.7911 H       
  41 H41            5.2958    -0.0836    -1.1617 H       
  42 H42            3.7403    -0.2248    -2.0154 H       
  43 H43            1.7467    -4.3574    -0.9152 H       
  44 H44            1.6045    -4.3853     0.8589 H       
  45 H45           -0.0725    -5.1397    -2.3198 H       
  46 H46           -2.0342    -6.6169    -2.5003 H       
  47 H47           -3.1851    -7.3895    -0.4651 H       
  48 H48           -2.3736    -6.6854     1.7506 H       
  49 H49           -0.4068    -5.2150     1.9313 H       
@<TRIPOS>BOND
   1    1    2 1
   2    1    7 2
   3    1    6 1
   4    2    3 1
   5    2    9 1
   6    3    4 2
   7    4    5 1
   8    4   13 1
   9    5    6 2
  10    6   10 1
  11    7    8 1
  12    7   11 1
  13    8    9 2
  14    8   12 1
  15    9   22 1
  16   10   32 1
  17   10   33 1
  18   11   18 2
  19   11   19 1
  20   12   20 1
  21   12   21 2
  22   13   14 2
  23   13   15 1
  24   15   16 2
  25   15   17 1
  26   17   34 1
  27   17   35 1
  28   17   36 1
  29   19   37 1
  30   19   38 1
  31   19   39 1
  32   20   40 1
  33   20   41 1
  34   20   42 1
  35   22   23 2
  36   22   24 1
  37   24   25 1
  38   25   26 1
  39   25   43 1
  40   25   44 1
  41   26   27 ar
  42   26   31 ar
  43   27   28 ar
  44   27   45 1
  45   28   29 ar
  46   28   46 1
  47   29   30 ar
  48   29   47 1
  49   30   31 ar
  50   30   48 1
  51   31   49 1

#	End of record

