#	Name: ASD01150970
#	Creating user name:	WinNT
#	Creation time:	15. 06. 2019 19:05

#	Modifying user name:	WinNT
#	Modification time:	15. 06. 2019 19:05

#	Program:	/corina/corina34_cracker 3.40 0067  02.08.2006

@<TRIPOS>MOLECULE
ASD01150970
  29   29    0    0    0
SMALL
NO_CHARGES


@<TRIPOS>ATOM
   1 N1            -0.0178     1.4608     0.0101 N.am    
   2 C2             0.0021    -0.0041     0.0020 C.3     
   3 C3            -1.2729    -0.5271     0.6119 C.2     
   4 C4             0.1165    -0.4856    -1.3843 C.1     
   5 N5             0.2048    -0.8572    -2.4541 N.1     
   6 O6            -1.4763    -1.8502     0.7104 O.3     
   7 O7            -2.1121     0.2446     1.0122 O.2     
   8 C8            -2.7269    -2.2822     1.3085 C.3     
   9 C9            -2.7784    -3.8111     1.3346 C.3     
  10 C10            1.1401     2.1505     0.0027 C.2     
  11 C11            1.1201     3.6288     0.0109 C.ar    
  12 O12            2.2009     1.5571    -0.0106 O.2     
  13 C13            2.3174     4.3460     0.0033 C.ar    
  14 C14            2.2917     5.7254     0.0110 C.ar    
  15 C15            1.0825     6.3977     0.0262 C.ar    
  16 C16           -0.1080     5.6927     0.0342 C.ar    
  17 C17           -0.0963     4.3132     0.0204 C.ar    
  18 H18           -0.8643     1.9343     0.0167 H       
  19 H19            0.8543    -0.3591     0.5815 H       
  20 H20           -2.7941    -1.8990     2.3267 H       
  21 H21           -3.5617    -1.9005     0.7207 H       
  22 H22           -3.7172    -4.1354     1.7836 H       
  23 H23           -2.7111    -4.1944     0.3164 H       
  24 H24           -1.9436    -4.1928     1.9224 H       
  25 H25            3.2619     3.8224    -0.0082 H       
  26 H26            3.2174     6.2816     0.0055 H       
  27 H27            1.0679     7.4776     0.0322 H       
  28 H28           -1.0485     6.2235     0.0464 H       
  29 H29           -1.0263     3.7641     0.0263 H       
@<TRIPOS>BOND
   1    1    2 1
   2    1   10 am
   3    1   18 1
   4    2    3 1
   5    2    4 1
   6    2   19 1
   7    3    6 1
   8    3    7 2
   9    4    5 3
  10    6    8 1
  11    8    9 1
  12    8   20 1
  13    8   21 1
  14    9   22 1
  15    9   23 1
  16    9   24 1
  17   10   11 1
  18   10   12 2
  19   11   13 ar
  20   11   17 ar
  21   13   14 ar
  22   13   25 1
  23   14   15 ar
  24   14   26 1
  25   15   16 ar
  26   15   27 1
  27   16   17 ar
  28   16   28 1
  29   17   29 1

#	End of record

