#	Name: ASD01910483
#	Creating user name:	WinNT
#	Creation time:	15. 06. 2019 19:55

#	Modifying user name:	WinNT
#	Modification time:	15. 06. 2019 19:55

#	Program:	/corina/corina34_cracker 3.40 0067  02.08.2006

@<TRIPOS>MOLECULE
ASD01910483
  44   47    0    0    0
SMALL
NO_CHARGES


@<TRIPOS>ATOM
   1 C1             0.0501     1.4697     0.0547 C.ar    
   2 C2             0.0550    -0.0144     0.0357 C.2     
   3 N3            -1.0305    -0.8207     0.0394 N.2     
   4 C4            -0.5607    -2.0432     0.0179 C.2     
   5 O5             0.7728    -1.9521     0.0019 O.3     
   6 N6             1.1096    -0.7869     0.0067 N.2     
   7 C7            -1.3712    -3.3136     0.0129 C.3     
   8 C8            -1.0547    -4.1165    -1.2509 C.3     
   9 C9            -1.9016    -5.3911    -1.2731 C.3     
  10 C10           -1.5542    -6.2514    -0.0540 C.3     
  11 N11           -1.7173    -5.4396     1.1597 N.am    
  12 C12           -1.0179    -4.1504     1.2465 C.3     
  13 C13           -2.4937    -5.8693     2.1740 C.2     
  14 C14           -3.2635    -7.1206     2.0351 C.ar    
  15 O15           -2.5600    -5.2259     3.2036 O.2     
  16 C16            1.2529     2.1729     0.0481 C.ar    
  17 C17            1.2426     3.5529     0.0653 C.ar    
  18 C18            0.0411     4.2379     0.0890 C.ar    
  19 C19           -1.1559     3.5447     0.0955 C.ar    
  20 C20           -1.1573     2.1647     0.0732 C.ar    
  21 C21           -2.6137    -8.3099     1.6961 C.ar    
  22 C22           -3.3371    -9.4755     1.5681 C.ar    
  23 C23           -4.7087    -9.4715     1.7749 C.ar    
  24 C24           -5.3612    -8.2966     2.1114 C.ar    
  25 C25           -4.6466    -7.1222     2.2481 C.ar    
  26 F26           -5.4115   -10.6183     1.6472 F       
  27 F27           -5.2827    -5.9764     2.5766 F       
  28 H28           -2.4330    -3.0678     0.0314 H       
  29 H29           -1.2822    -3.5141    -2.1303 H       
  30 H30            0.0023    -4.3827    -1.2568 H       
  31 H31           -2.9584    -5.1262    -1.2422 H       
  32 H32           -1.6928    -5.9508    -2.1848 H       
  33 H33           -2.2228    -7.1112    -0.0111 H       
  34 H34           -0.5216    -6.5923    -0.1296 H       
  35 H35            0.0584    -4.3199     1.2770 H       
  36 H36           -1.3326    -3.6239     2.1476 H       
  37 H37            2.1916     1.6391     0.0300 H       
  38 H38            2.1743     4.0990     0.0606 H       
  39 H39            0.0376     5.3178     0.1027 H       
  40 H40           -2.0912     4.0844     0.1144 H       
  41 H41           -2.0924     1.6245     0.0783 H       
  42 H42           -1.5459    -8.3156     1.5342 H       
  43 H43           -2.8348   -10.3949     1.3057 H       
  44 H44           -6.4293    -8.2996     2.2709 H       
@<TRIPOS>BOND
   1    1    2 1
   2    1   16 ar
   3    1   20 ar
   4    2    3 1
   5    2    6 2
   6    3    4 2
   7    4    5 1
   8    4    7 1
   9    5    6 1
  10    7    8 1
  11    7   12 1
  12    7   28 1
  13    8    9 1
  14    8   29 1
  15    8   30 1
  16    9   10 1
  17    9   31 1
  18    9   32 1
  19   10   11 1
  20   10   33 1
  21   10   34 1
  22   11   12 1
  23   11   13 am
  24   12   35 1
  25   12   36 1
  26   13   14 1
  27   13   15 2
  28   14   21 ar
  29   14   25 ar
  30   16   17 ar
  31   16   37 1
  32   17   18 ar
  33   17   38 1
  34   18   19 ar
  35   18   39 1
  36   19   20 ar
  37   19   40 1
  38   20   41 1
  39   21   22 ar
  40   21   42 1
  41   22   23 ar
  42   22   43 1
  43   23   24 ar
  44   23   26 1
  45   24   25 ar
  46   24   44 1
  47   25   27 1

#	End of record

