#	Name: ASD01920029
#	Creating user name:	WinNT
#	Creation time:	15. 06. 2019 20:11

#	Modifying user name:	WinNT
#	Modification time:	15. 06. 2019 20:11

#	Program:	/corina/corina34_cracker 3.40 0067  02.08.2006

@<TRIPOS>MOLECULE
ASD01920029
  66   69    0    0    0
SMALL
NO_CHARGES


@<TRIPOS>ATOM
   1 C1             0.0119     1.4068     0.0769 C.ar    
   2 C2             0.0269     0.0246     0.0690 C.ar    
   3 C3             1.2313    -0.6535     0.0463 C.ar    
   4 C4             2.4208     0.0507     0.0310 C.ar    
   5 C5             2.4058     1.4330     0.0379 C.ar    
   6 C6             1.2014     2.1110     0.0620 C.ar    
   7 O7             4.6782     0.0431    -0.7771 O.3     
   8 C8             5.6510    -0.7760    -1.4288 C.3     
   9 C9             6.0917    -0.1069    -2.7337 C.3     
  10 C10            7.1771    -0.9582    -3.3964 C.3     
  11 N11            8.3200    -1.0932    -2.4843 N.3     
  12 C12            7.9314    -1.7755    -1.2435 C.3     
  13 C13            6.8685    -0.9487    -0.5165 C.3     
  14 C14            9.4370    -1.7872    -3.1391 C.3     
  15 C15            3.7338    -0.6884     0.0072 C.3     
  16 C16            4.2543    -0.8333     1.4140 C.ar    
  17 C17            4.0852    -2.0248     2.0943 C.ar    
  18 C18            4.5626    -2.1577     3.3848 C.ar    
  19 C19            5.2094    -1.0992     3.9949 C.ar    
  20 C20            5.3792     0.0920     3.3143 C.ar    
  21 C21            4.9057     0.2234     2.0222 C.ar    
  22 C22            9.9756    -0.9227    -4.2808 C.3     
  23 C23           10.5783     0.3638    -3.7077 C.3     
  24 N24           11.2052     1.1200    -4.8003 N.am    
  25 C25           12.1949     0.4440    -5.6502 C.3     
  26 C26           11.5740    -0.8433    -6.2016 C.3     
  27 C27           11.0578    -1.6945    -5.0393 C.3     
  28 C28           10.8783     2.4091    -5.0190 C.2     
  29 N29           11.5366     3.1218    -5.9546 N.am    
  30 O30            9.9897     2.9291    -4.3724 O.2     
  31 C31           11.1081     4.4863    -6.2718 C.3     
  32 H32           -0.9291     1.9366     0.0901 H       
  33 H33           -0.9023    -0.5256     0.0810 H       
  34 H34            1.2431    -1.7334     0.0409 H       
  35 H35            3.3351     1.9832     0.0266 H       
  36 H36            1.1897     3.1909     0.0671 H       
  37 H37            5.2175    -1.7518    -1.6481 H       
  38 H38            5.2371    -0.0199    -3.4047 H       
  39 H39            6.4883     0.8852    -2.5181 H       
  40 H40            6.7757    -1.9456    -3.6243 H       
  41 H41            7.5033    -0.4773    -4.3186 H       
  42 H42            7.5264    -2.7591    -1.4814 H       
  43 H43            8.8054    -1.8883    -0.6019 H       
  44 H44            7.2773     0.0302    -0.2660 H       
  45 H45            6.5689    -1.4631     0.3966 H       
  46 H46           10.2301    -1.9651    -2.4128 H       
  47 H47            9.0891    -2.7401    -3.5378 H       
  48 H48            3.5868    -1.6763    -0.4293 H       
  49 H49            3.5799    -2.8517     1.6176 H       
  50 H50            4.4299    -3.0883     3.9165 H       
  51 H51            5.5817    -1.2028     5.0033 H       
  52 H52            5.8842     0.9190     3.7911 H       
  53 H53            5.0384     1.1540     1.4905 H       
  54 H54            9.1623    -0.6715    -4.9618 H       
  55 H55            9.7912     0.9646    -3.2521 H       
  56 H56           11.3295     0.1132    -2.9587 H       
  57 H57           12.4744     1.0979    -6.4763 H       
  58 H58           13.0779     0.2000    -5.0596 H       
  59 H59           10.7461    -0.5929    -6.8649 H       
  60 H60           12.3281    -1.4027    -6.7554 H       
  61 H61           11.8815    -1.9239    -4.3632 H       
  62 H62           10.6376    -2.6224    -5.4273 H       
  63 H63           12.2941     2.7312    -6.4178 H       
  64 H64           10.0785     4.4700    -6.6293 H       
  65 H65           11.1721     5.1046    -5.3764 H       
  66 H66           11.7549     4.8996    -7.0457 H       
@<TRIPOS>BOND
   1    1    2 ar
   2    1    6 ar
   3    1   32 1
   4    2    3 ar
   5    2   33 1
   6    3    4 ar
   7    3   34 1
   8    4    5 ar
   9    4   15 1
  10    5    6 ar
  11    5   35 1
  12    6   36 1
  13    7    8 1
  14    7   15 1
  15    8    9 1
  16    8   13 1
  17    8   37 1
  18    9   10 1
  19    9   38 1
  20    9   39 1
  21   10   11 1
  22   10   40 1
  23   10   41 1
  24   11   12 1
  25   11   14 1
  26   12   13 1
  27   12   42 1
  28   12   43 1
  29   13   44 1
  30   13   45 1
  31   14   22 1
  32   14   46 1
  33   14   47 1
  34   15   16 1
  35   15   48 1
  36   16   17 ar
  37   16   21 ar
  38   17   18 ar
  39   17   49 1
  40   18   19 ar
  41   18   50 1
  42   19   20 ar
  43   19   51 1
  44   20   21 ar
  45   20   52 1
  46   21   53 1
  47   22   23 1
  48   22   27 1
  49   22   54 1
  50   23   24 1
  51   23   55 1
  52   23   56 1
  53   24   25 1
  54   24   28 am
  55   25   26 1
  56   25   57 1
  57   25   58 1
  58   26   27 1
  59   26   59 1
  60   26   60 1
  61   27   61 1
  62   27   62 1
  63   28   29 am
  64   28   30 2
  65   29   31 1
  66   29   63 1
  67   31   64 1
  68   31   65 1
  69   31   66 1

#	End of record

