#	Name: ASD00310057
#	Creating user name:	WinNT
#	Creation time:	15. 06. 2019 18:33

#	Modifying user name:	WinNT
#	Modification time:	15. 06. 2019 18:33

#	Program:	/corina/corina34_cracker 3.40 0067  02.08.2006

@<TRIPOS>MOLECULE
ASD00310057
  43   44    0    0    0
SMALL
NO_CHARGES


@<TRIPOS>ATOM
   1 C1            -0.0184     1.5028     0.0103 C.2     
   2 C2             0.0021    -0.0041     0.0020 C.3     
   3 O3             1.0236     2.1234     0.0037 O.2     
   4 N4            -1.1946     2.1607     0.0195 N.am    
   5 C5            -1.2145     3.6256     0.0275 C.3     
   6 C6            -2.6637     4.1159     0.0371 C.3     
   7 O7            -3.2916     3.7226     1.2590 O.3     
   8 C8            -4.5891     4.0816     1.4282 C.ar    
   9 C9            -5.2597     3.7306     2.5944 C.ar    
  10 C10           -6.5765     4.0932     2.7687 C.ar    
  11 C11           -7.2380     4.8142     1.7735 C.ar    
  12 C12           -6.5621     5.1656     0.6040 C.ar    
  13 C13           -5.2437     4.8048     0.4375 C.ar    
  14 O14           -9.4349     5.9659     0.9645 O.3     
  15 B15           -8.7396     5.2288     1.9689 Du      
  16 O16           -9.4498     4.8793     3.1558 O.3     
  17 C17          -10.7235     4.2829     2.8813 C.3     
  18 C18          -11.5077     5.1952     1.9334 C.3     
  19 C19          -10.7083     5.3932     0.6421 C.3     
  20 C20          -12.8564     4.5517     1.6052 C.3     
  21 C21          -11.7381     6.5509     2.6041 C.3     
  22 H22            1.0345    -0.3534    -0.0097 H       
  23 H23           -0.4983    -0.3791     0.8948 H       
  24 H24           -0.5153    -0.3696    -0.8850 H       
  25 H25           -2.0280     1.6644     0.0207 H       
  26 H26           -0.7014     3.9910     0.9171 H       
  27 H27           -0.7098     4.0007    -0.8628 H       
  28 H28           -2.6802     5.2026    -0.0465 H       
  29 H29           -3.2008     3.6786    -0.8046 H       
  30 H30           -4.7473     3.1726     3.3642 H       
  31 H31           -7.0971     3.8196     3.6746 H       
  32 H32           -7.0714     5.7235    -0.1678 H       
  33 H33           -4.7189     5.0802    -0.4653 H       
  34 H34          -10.5771     3.3097     2.4127 H       
  35 H35          -11.2776     4.1615     3.8120 H       
  36 H36          -11.2515     6.0636    -0.0239 H       
  37 H37          -10.5618     4.4304     0.1526 H       
  38 H38          -13.4243     4.4092     2.5246 H       
  39 H39          -13.4143     5.2012     0.9306 H       
  40 H40          -12.6916     3.5864     1.1265 H       
  41 H41          -10.7769     7.0092     2.8368 H       
  42 H42          -12.2962     7.1999     1.9293 H       
  43 H43          -12.3054     6.4094     3.5241 H       
@<TRIPOS>BOND
   1    1    2 1
   2    1    3 2
   3    1    4 am
   4    2   22 1
   5    2   23 1
   6    2   24 1
   7    4    5 1
   8    4   25 1
   9    5    6 1
  10    5   26 1
  11    5   27 1
  12    6    7 1
  13    6   28 1
  14    6   29 1
  15    7    8 1
  16    8    9 ar
  17    8   13 ar
  18    9   10 ar
  19    9   30 1
  20   10   11 ar
  21   10   31 1
  22   11   12 ar
  23   11   15 1
  24   12   13 ar
  25   12   32 1
  26   13   33 1
  27   14   15 1
  28   14   19 1
  29   15   16 1
  30   16   17 1
  31   17   18 1
  32   17   34 1
  33   17   35 1
  34   18   19 1
  35   18   20 1
  36   18   21 1
  37   19   36 1
  38   19   37 1
  39   20   38 1
  40   20   39 1
  41   20   40 1
  42   21   41 1
  43   21   42 1
  44   21   43 1

#	End of record

