#	Name: ASD01912926
#	Creating user name:	WinNT
#	Creation time:	15. 06. 2019 20:00

#	Modifying user name:	WinNT
#	Modification time:	15. 06. 2019 20:00

#	Program:	/corina/corina34_cracker 3.40 0067  02.08.2006

@<TRIPOS>MOLECULE
ASD01912926
  40   44    0    0    0
SMALL
NO_CHARGES


@<TRIPOS>ATOM
   1 C1            -0.1009     1.1868     0.6493 C.2     
   2 N2             0.0084     0.0094    -0.0448 N.pl3   
   3 C3            -1.1094    -0.4937    -0.6937 C.2     
   4 C4            -2.2736     0.1415    -0.6541 C.2     
   5 N5            -2.4358     1.3307     0.0312 N.am    
   6 C6            -1.3909     1.8771     0.6923 C.2     
   7 C7             1.1450     1.4493     1.1878 C.2     
   8 C8             1.9511     0.3891     0.7766 C.2     
   9 N9             1.2161    -0.4222     0.0536 N.2     
  10 O10           -1.5174     2.9241     1.3012 O.2     
  11 C11           -3.6802     1.9645     0.0456 C.ar    
  12 C12            3.4106     0.2067     1.1050 C.3     
  13 O13            3.8568     1.2974     1.9133 O.3     
  14 C14            5.1596     1.2861     2.3000 C.ar    
  15 C15            5.6600     2.3140     3.0859 C.ar    
  16 C16            6.9847     2.3003     3.4776 C.ar    
  17 C17            7.8116     1.2633     3.0870 C.ar    
  18 C18            7.3154     0.2379     2.3033 C.ar    
  19 C19            5.9899     0.2439     1.9141 C.ar    
  20 C20           -3.9739     2.9033    -0.9599 C.ar    
  21 C21           -4.5664     1.6470     1.0292 C.ar    
  22 C22           -5.8252     2.2706     1.0660 C.ar    
  23 C23           -6.1556     3.2700     0.0178 C.ar    
  24 C24           -5.1622     3.5543    -1.0038 C.ar    
  25 N25           -6.9113     2.2543     1.8001 N.2     
  26 O26           -7.7156     3.0379     1.3365 O.3     
  27 N27           -7.3668     3.6425     0.3420 N.2     
  28 H28           -1.0305    -1.4206    -1.2423 H       
  29 H29           -3.1198    -0.2834    -1.1734 H       
  30 H30            1.4320     2.2943     1.7960 H       
  31 H31            3.5466    -0.7281     1.6488 H       
  32 H32            3.9898     0.1777     0.1820 H       
  33 H33            5.0146     3.1244     3.3910 H       
  34 H34            7.3748     3.1004     4.0891 H       
  35 H35            8.8470     1.2544     3.3942 H       
  36 H36            7.9635    -0.5706     1.9989 H       
  37 H37            5.6028    -0.5573     1.3020 H       
  38 H38           -3.2326     3.1113    -1.7172 H       
  39 H39           -4.3025     0.9167     1.7798 H       
  40 H40           -5.3655     4.2745    -1.7825 H       
@<TRIPOS>BOND
   1    1    2 1
   2    1    7 2
   3    1    6 1
   4    2    3 1
   5    2    9 1
   6    3    4 2
   7    3   28 1
   8    4    5 1
   9    4   29 1
  10    5    6 am
  11    5   11 1
  12    6   10 2
  13    7    8 1
  14    7   30 1
  15    8    9 2
  16    8   12 1
  17   11   21 ar
  18   11   20 ar
  19   12   13 1
  20   12   31 1
  21   12   32 1
  22   13   14 1
  23   14   15 ar
  24   14   19 ar
  25   15   16 ar
  26   15   33 1
  27   16   17 ar
  28   16   34 1
  29   17   18 ar
  30   17   35 1
  31   18   19 ar
  32   18   36 1
  33   19   37 1
  34   20   24 ar
  35   20   38 1
  36   21   22 ar
  37   21   39 1
  38   22   23 ar
  39   22   25 2
  40   23   24 ar
  41   23   27 2
  42   24   40 1
  43   25   26 1
  44   26   27 1

#	End of record

