#	Name: ASD01410819
#	Creating user name:	WinNT
#	Creation time:	15. 06. 2019 19:18

#	Modifying user name:	WinNT
#	Modification time:	15. 06. 2019 19:18

#	Program:	/corina/corina34_cracker 3.40 0067  02.08.2006

@<TRIPOS>MOLECULE
ASD01410819
  59   59    0    0    0
SMALL
NO_CHARGES


@<TRIPOS>ATOM
   1 C1            -0.0975     1.5898     0.0322 C.3     
   2 C2            -0.0179     0.0449    -0.0494 C.3     
   3 C3            -0.1838     0.6468     2.2604 C.3     
   4 C4            -0.7735     1.7943     1.4136 C.3     
   5 C5             1.0887    -0.3748    -0.9824 C.2     
   6 O6             0.8357    -1.0372    -1.9598 O.2     
   7 C7            -1.2452     0.0827     3.1692 C.2     
   8 O8            -1.8170    -0.9386     2.8693 O.2     
   9 O9            -1.5556     0.7147     4.3120 O.3     
  10 C10           -2.5875     0.1142     5.1382 C.3     
  11 N11            0.2788    -0.3910     1.3273 N.am    
  12 O12            1.1863    -1.7875     2.9613 O.3     
  13 C13            1.8264    -3.0559     3.2609 C.3     
  14 C14            3.1464    -3.1548     2.4935 C.3     
  15 C15            2.1019    -3.1458     4.7632 C.3     
  16 C16            0.9055    -4.2035     2.8417 C.3     
  17 C17            0.8747    -1.5493     1.6734 C.2     
  18 O18            1.1306    -2.3786     0.8229 O.2     
  19 Si19           1.2599     3.6564    -0.6640 Si      
  20 C20            3.0105     4.2929    -0.6283 C.3     
  21 C21            0.1589     4.8129     0.2957 C.3     
  22 C22            0.6704     3.5592    -2.4286 C.3     
  23 C23            3.4946     4.3728     0.8208 C.3     
  24 C24            3.9147     3.3432    -1.4165 C.3     
  25 C25            3.0597     5.6856    -1.2600 C.3     
  26 O26            1.2074     2.1718     0.0093 O.3     
  27 H27           -0.7165     1.9920    -0.7698 H       
  28 H28           -0.9705    -0.3670    -0.3825 H       
  29 H29            0.6535     1.0158     2.8528 H       
  30 H30           -0.5040     2.7627     1.8353 H       
  31 H31           -1.8560     1.6961     1.3316 H       
  32 H32            2.1081    -0.0830    -0.7767 H       
  33 H33           -2.7403     0.7236     6.0290 H       
  34 H34           -3.5179     0.0570     4.5732 H       
  35 H35           -2.2791    -0.8889     5.4328 H       
  36 H36            3.8024    -2.3372     2.7922 H       
  37 H37            3.6269    -4.1069     2.7185 H       
  38 H38            2.9501    -3.0907     1.4233 H       
  39 H39            1.1616    -3.0753     5.3099 H       
  40 H40            2.5825    -4.0979     4.9881 H       
  41 H41            2.7580    -2.3282     5.0619 H       
  42 H42            0.7093    -4.1394     1.7715 H       
  43 H43            1.3861    -5.1556     3.0666 H       
  44 H44           -0.0348    -4.1330     3.3884 H       
  45 H45            0.1940     5.8050    -0.1543 H       
  46 H46           -0.8653     4.4404     0.2748 H       
  47 H47            0.5039     4.8698     1.3281 H       
  48 H48            1.3146     2.8825    -2.9902 H       
  49 H49           -0.3538     3.1867    -2.4495 H       
  50 H50            0.7055     4.5513    -2.8786 H       
  51 H51            3.4595     3.3806     1.2708 H       
  52 H52            4.5188     4.7452     0.8417 H       
  53 H53            2.8504     5.0494     1.3824 H       
  54 H54            3.5697     3.2863    -2.4489 H       
  55 H55            4.9389     3.7156    -1.3956 H       
  56 H56            3.8796     2.3510    -0.9665 H       
  57 H57            2.4155     6.3622    -0.6984 H       
  58 H58            4.0839     6.0580    -1.2391 H       
  59 H59            2.7148     5.6287    -2.2924 H       
@<TRIPOS>BOND
   1    1    2 1
   2    1   26 1
   3    1    4 1
   4    1   27 1
   5    2    5 1
   6    2   11 1
   7    2   28 1
   8    3    4 1
   9    3    7 1
  10    3   11 1
  11    3   29 1
  12    4   30 1
  13    4   31 1
  14    5    6 2
  15    5   32 1
  16    7    8 2
  17    7    9 1
  18    9   10 1
  19   10   33 1
  20   10   34 1
  21   10   35 1
  22   11   17 am
  23   12   13 1
  24   12   17 1
  25   13   14 1
  26   13   15 1
  27   13   16 1
  28   14   36 1
  29   14   37 1
  30   14   38 1
  31   15   39 1
  32   15   40 1
  33   15   41 1
  34   16   42 1
  35   16   43 1
  36   16   44 1
  37   17   18 2
  38   19   20 1
  39   19   21 1
  40   19   22 1
  41   19   26 1
  42   20   23 1
  43   20   24 1
  44   20   25 1
  45   21   45 1
  46   21   46 1
  47   21   47 1
  48   22   48 1
  49   22   49 1
  50   22   50 1
  51   23   51 1
  52   23   52 1
  53   23   53 1
  54   24   54 1
  55   24   55 1
  56   24   56 1
  57   25   57 1
  58   25   58 1
  59   25   59 1

#	End of record

