#	Name: ASD00843300
#	Creating user name:	WinNT
#	Creation time:	15. 06. 2019 18:46

#	Modifying user name:	WinNT
#	Modification time:	15. 06. 2019 18:46

#	Program:	/corina/corina34_cracker 3.40 0067  02.08.2006

@<TRIPOS>MOLECULE
ASD00843300
  91   96    0    0    0
SMALL
NO_CHARGES


@<TRIPOS>ATOM
   1 N1             0.9959     1.1652    -0.3334 N.ar    
   2 C2             1.1604    -0.1213    -0.5918 C.ar    
   3 C3             1.0290    -1.0682     0.4162 C.ar    
   4 C4             0.7227    -0.6482     1.6986 C.ar    
   5 C5             0.5579     0.7110     1.9286 C.ar    
   6 C6             0.7034     1.5960     0.8792 C.ar    
   7 C7             1.2169    -2.5331     0.1169 C.3     
   8 C8             0.8791    -3.3703     1.3322 C.2     
   9 C9             0.3556    -2.9497    -1.0771 C.3     
  10 C10           -1.0803    -2.5744    -0.8159 C.2     
  11 N11           -2.0431    -2.9501    -1.6810 N.am    
  12 O12           -1.3696    -1.9342     0.1727 O.2     
  13 C13           -3.4290    -2.4965    -1.5019 C.3     
  14 C14           -4.3507    -3.7201    -1.4903 C.3     
  15 C15           -4.1174    -4.5416    -2.7603 C.3     
  16 C16           -2.6672    -5.0295    -2.7951 C.3     
  17 C17           -1.7254    -3.8162    -2.8246 C.3     
  18 C18           -5.0608    -5.7461    -2.7688 C.3     
  19 C19           -6.5122    -5.2595    -2.7358 C.3     
  20 C20           -7.4512    -6.4659    -2.8059 C.3     
  21 N21           -7.1955    -7.2156    -4.0424 N.3     
  22 C22           -5.8217    -7.7332    -4.0750 C.3     
  23 C23           -4.8340    -6.5647    -4.0428 C.3     
  24 C24           -8.1711    -8.3008    -4.2113 C.3     
  25 O25           -0.1967    -3.4306     1.8890 O.2     
  26 N26            1.9952    -4.0336     1.6784 N.am    
  27 C27            2.6739    -2.8373    -0.1457 C.ar    
  28 C28            3.0664    -3.7434     0.8318 C.ar    
  29 C29            3.5638    -2.3991    -1.1004 C.ar    
  30 C30            4.8687    -2.8625    -1.0933 C.ar    
  31 C31            5.2728    -3.7665    -0.1237 C.ar    
  32 C32            4.3800    -4.2067     0.8347 C.ar    
  33 Cl33           5.9945    -2.3134    -2.2953 Cl      
  34 F34            6.5456    -4.2196    -0.1155 F       
  35 C35            1.6722    -6.6796     2.3632 C.ar    
  36 C36            2.6622    -7.5136     1.8772 C.ar    
  37 C37            0.3566    -7.1042     2.3853 C.ar    
  38 C38            0.0280    -8.3634     1.9217 C.ar    
  39 C39            1.0194    -9.2021     1.4336 C.ar    
  40 C40            2.3387    -8.7736     1.4120 C.ar    
  41 O41            0.6988   -10.4414     0.9774 O.3     
  42 H42            3.6891    -7.1797     1.8610 H       
  43 C43            1.7708   -11.2505     0.4894 C.3     
  44 C44           -8.0338    -8.8962    -5.6140 C.3     
  45 O45            1.4601    -0.5202    -1.8535 O.3     
  46 C46            1.5393     0.4970    -2.8539 C.3     
  47 C47            1.9746    -0.1263    -4.1817 C.3     
  48 F48            3.1886    -0.7988    -4.0053 F       
  49 F49            0.9990    -1.0308    -4.6143 F       
  50 S50            2.0890    -5.0758     2.9620 S.o2    
  51 O51            3.4591    -5.1303     3.3352 O.2     
  52 O52            1.0533    -4.7009     3.8597 O.2     
  53 H53            0.6140    -1.3615     2.5022 H       
  54 H54            0.3182     1.0720     2.9178 H       
  55 H55            0.5766     2.6544     1.0529 H       
  56 H56            0.7071    -2.4398    -1.9741 H       
  57 H57            0.4292    -4.0278    -1.2196 H       
  58 H58           -3.5193    -1.9621    -0.5562 H       
  59 H59           -3.7070    -1.8375    -2.3244 H       
  60 H60           -4.1315    -4.3324    -0.6156 H       
  61 H61           -5.3897    -3.3926    -1.4547 H       
  62 H62           -4.3129    -3.9213    -3.6351 H       
  63 H63           -2.4639    -5.6295    -1.9081 H       
  64 H64           -2.5080    -5.6339    -3.6881 H       
  65 H65           -1.8659    -3.2671    -3.7557 H       
  66 H66           -0.6918    -4.1540    -2.7496 H       
  67 H67           -4.8651    -6.3681    -1.8954 H       
  68 H68           -6.6915    -4.7121    -1.8104 H       
  69 H69           -6.6961    -4.6052    -3.5879 H       
  70 H70           -7.2763    -7.1127    -1.9462 H       
  71 H71           -8.4855    -6.1220    -2.7970 H       
  72 H72           -5.6544    -8.3741    -3.2094 H       
  73 H73           -5.6725    -8.3099    -4.9879 H       
  74 H74           -4.9915    -5.9309    -4.9155 H       
  75 H75           -3.8143    -6.9498    -4.0513 H       
  76 H76           -7.9849    -9.0758    -3.4678 H       
  77 H77           -9.1790    -7.9068    -4.0809 H       
  78 H78            3.2444    -1.6948    -1.8543 H       
  79 H79            4.7015    -4.9110     1.5877 H       
  80 H80           -0.4148    -6.4510     2.7658 H       
  81 H81           -0.9998    -8.6947     1.9396 H       
  82 H82            3.1124    -9.4248     1.0329 H       
  83 H83            2.2546   -10.7465    -0.3473 H       
  84 H84            2.4971   -11.4106     1.2862 H       
  85 H85            1.3785   -12.2116     0.1569 H       
  86 H86           -8.7577    -9.7014    -5.7394 H       
  87 H87           -8.2201    -8.1212    -6.3575 H       
  88 H88           -7.0259    -9.2902    -5.7445 H       
  89 H89            0.5621     0.9644    -2.9751 H       
  90 H90            2.2669     1.2496    -2.5500 H       
  91 H91            2.0990     0.6584    -4.9279 H       
@<TRIPOS>BOND
   1    1    2 ar
   2    1    6 ar
   3    2    3 ar
   4    2   45 1
   5    3    4 ar
   6    3    7 1
   7    4    5 ar
   8    4   53 1
   9    5    6 ar
  10    5   54 1
  11    6   55 1
  12    7    8 1
  13    7    9 1
  14    7   27 1
  15    8   25 2
  16    8   26 am
  17    9   10 1
  18    9   56 1
  19    9   57 1
  20   10   11 am
  21   10   12 2
  22   11   13 1
  23   11   17 1
  24   13   14 1
  25   13   58 1
  26   13   59 1
  27   14   15 1
  28   14   60 1
  29   14   61 1
  30   15   16 1
  31   15   18 1
  32   15   62 1
  33   16   17 1
  34   16   63 1
  35   16   64 1
  36   17   65 1
  37   17   66 1
  38   18   19 1
  39   18   23 1
  40   18   67 1
  41   19   20 1
  42   19   68 1
  43   19   69 1
  44   20   21 1
  45   20   70 1
  46   20   71 1
  47   21   22 1
  48   21   24 1
  49   22   23 1
  50   22   72 1
  51   22   73 1
  52   23   74 1
  53   23   75 1
  54   24   44 1
  55   24   76 1
  56   24   77 1
  57   26   50 am
  58   26   28 1
  59   27   28 ar
  60   27   29 ar
  61   28   32 ar
  62   29   30 ar
  63   29   78 1
  64   30   31 ar
  65   30   33 1
  66   31   32 ar
  67   31   34 1
  68   32   79 1
  69   35   36 ar
  70   35   37 ar
  71   35   50 1
  72   36   42 1
  73   36   40 ar
  74   37   38 ar
  75   37   80 1
  76   38   39 ar
  77   38   81 1
  78   39   40 ar
  79   39   41 1
  80   40   82 1
  81   41   43 1
  82   43   83 1
  83   43   84 1
  84   43   85 1
  85   44   86 1
  86   44   87 1
  87   44   88 1
  88   45   46 1
  89   46   47 1
  90   46   89 1
  91   46   90 1
  92   47   48 1
  93   47   49 1
  94   47   91 1
  95   50   51 2
  96   50   52 2

#	End of record

