#	Name: ASD01001078
#	Creating user name:	WinNT
#	Creation time:	15. 06. 2019 18:55

#	Modifying user name:	WinNT
#	Modification time:	15. 06. 2019 18:55

#	Program:	/corina/corina34_cracker 3.40 0067  02.08.2006

@<TRIPOS>MOLECULE
ASD01001078
  36   38    0    0    0
SMALL
NO_CHARGES


@<TRIPOS>ATOM
   1 C1            -0.0167     1.3776     0.0096 C.ar    
   2 C2             0.0021    -0.0041     0.0020 C.ar    
   3 C3             1.1875     2.0895     0.0019 C.ar    
   4 C4             1.2071    -0.6832    -0.0131 C.ar    
   5 C5             2.4016     1.3948    -0.0134 C.ar    
   6 C6             1.1771     3.5634     0.0095 C.2     
   7 C7             2.4024     0.0130    -0.0204 C.ar    
   8 N8             1.1821     4.3015     1.0654 N.2     
   9 N9             1.1703     5.6700     0.8035 N.am    
  10 C10            1.1550     5.8754    -0.6536 C.3     
  11 C11            1.1654     4.4421    -1.2209 C.3     
  12 C12            1.1719     6.6461     1.7329 C.2     
  13 C13           -0.0935     6.6080    -1.0728 C.ar    
  14 C14           -0.0322     7.5639    -2.0694 C.ar    
  15 C15           -1.1774     8.2359    -2.4539 C.ar    
  16 C16           -2.3840     7.9515    -1.8421 C.ar    
  17 C17           -2.4454     6.9949    -0.8462 C.ar    
  18 C18           -1.3010     6.3199    -0.4646 C.ar    
  19 C19            1.1879     6.2919     3.1976 C.3     
  20 O20            1.1603     7.8098     1.3903 O.2     
  21 F21            3.5701     2.0730    -0.0213 F       
  22 F22           -1.1946     2.0391     0.0188 F       
  23 H23           -0.9267    -0.5552     0.0083 H       
  24 H24            1.2147    -1.7632    -0.0190 H       
  25 H25            3.3389    -0.5249    -0.0318 H       
  26 H26            2.0448     6.4175    -0.9739 H       
  27 H27            2.0580     4.2762    -1.8242 H       
  28 H28            0.2660     4.2568    -1.8081 H       
  29 H29            0.9104     7.7861    -2.5474 H       
  30 H30           -1.1294     8.9833    -3.2321 H       
  31 H31           -3.2786     8.4770    -2.1421 H       
  32 H32           -3.3880     6.7730    -0.3679 H       
  33 H33           -1.3489     5.5725     0.3135 H       
  34 H34            2.0842     5.7135     3.4217 H       
  35 H35            1.1868     7.2054     3.7923 H       
  36 H36            0.3044     5.7007     3.4381 H       
@<TRIPOS>BOND
   1    1    2 ar
   2    1    3 ar
   3    1   22 1
   4    2    4 ar
   5    2   23 1
   6    3    6 1
   7    3    5 ar
   8    4    7 ar
   9    4   24 1
  10    5   21 1
  11    5    7 ar
  12    6    8 2
  13    6   11 1
  14    7   25 1
  15    8    9 1
  16    9   10 1
  17    9   12 am
  18   10   11 1
  19   10   13 1
  20   10   26 1
  21   11   27 1
  22   11   28 1
  23   12   19 1
  24   12   20 2
  25   13   14 ar
  26   13   18 ar
  27   14   15 ar
  28   14   29 1
  29   15   16 ar
  30   15   30 1
  31   16   17 ar
  32   16   31 1
  33   17   18 ar
  34   17   32 1
  35   18   33 1
  36   19   34 1
  37   19   35 1
  38   19   36 1

#	End of record

