#	Name: ASD00844265
#	Creating user name:	WinNT
#	Creation time:	15. 06. 2019 18:49

#	Modifying user name:	WinNT
#	Modification time:	15. 06. 2019 18:49

#	Program:	/corina/corina34_cracker 3.40 0067  02.08.2006

@<TRIPOS>MOLECULE
ASD00844265
  85   90    0    0    0
SMALL
NO_CHARGES


@<TRIPOS>ATOM
   1 C1            -0.0050     1.3863     0.0370 C.ar    
   2 C2             0.0094    -0.0006     0.0190 C.ar    
   3 C3             1.2194    -0.6793    -0.0011 C.ar    
   4 C4             2.4062     0.0272    -0.0031 C.ar    
   5 C5             2.3892     1.4099     0.0153 C.ar    
   6 C6             1.1849     2.0884     0.0349 C.ar    
   7 C7             1.2387    -2.1861    -0.0202 C.3     
   8 C8             0.4942    -2.7111    -1.2292 C.2     
   9 N9             2.6176    -2.6808    -0.0115 N.am    
  10 C10            3.4640    -2.3347    -1.0016 C.2     
  11 N11            4.7595    -2.7012    -0.9396 N.am    
  12 O12            3.0588    -1.6918    -1.9507 O.2     
  13 C13            5.2900    -3.3772     0.2522 C.3     
  14 C14            6.5163    -2.6065     0.7513 C.3     
  15 C15            7.5242    -2.4641    -0.3915 C.3     
  16 C16            6.8900    -1.6727    -1.5377 C.3     
  17 C17            5.6666    -2.4379    -2.0650 C.3     
  18 N18            8.7158    -1.7544     0.0925 N.3     
  19 C19            9.7556    -1.7027    -0.9447 C.3     
  20 C20           10.9455    -0.8889    -0.4304 C.3     
  21 N21           11.4625    -1.5056     0.7993 N.3     
  22 C22           10.4227    -1.5573     1.8365 C.3     
  23 C23            9.2328    -2.3710     1.3222 C.3     
  24 H24           11.8344    -2.4251     0.6140 H       
  25 O25            0.7743    -2.5076    -2.3916 O.2     
  26 N26           -0.5344    -3.4451    -0.7734 N.am    
  27 C27            0.4661    -2.7409     1.1550 C.ar    
  28 C28           -0.5817    -3.4845     0.6173 C.ar    
  29 C29            0.6301    -2.6293     2.5124 C.ar    
  30 C30           -0.2651    -3.2697     3.3767 C.ar    
  31 C31           -1.3208    -4.0189     2.8433 C.ar    
  32 C32           -1.4741    -4.1245     1.4775 C.ar    
  33 F33           -2.1905    -4.6409     3.6692 F       
  34 C34           -0.9907    -5.8296    -2.0697 C.ar    
  35 C35            0.1883    -5.9861    -2.7835 C.ar    
  36 C36           -1.6656    -6.9403    -1.6007 C.ar    
  37 C37           -1.1665    -8.2068    -1.8421 C.ar    
  38 C38            0.0086    -8.3654    -2.5535 C.ar    
  39 C39            0.6869    -7.2583    -3.0248 C.ar    
  40 H40            0.3965    -9.3559    -2.7408 H       
  41 O41            0.8538    -4.8953    -3.2462 O.3     
  42 C42            2.0610    -5.1319    -3.9733 C.3     
  43 C43           -0.1025    -3.1598     4.7952 C.1     
  44 N44            0.0265    -3.0727     5.9204 N.1     
  45 S45           -1.6232    -4.2155    -1.7549 S.o2    
  46 O46           -2.8042    -4.3906    -0.9843 O.2     
  47 O47           -1.6010    -3.5265    -2.9974 O.2     
  48 O48           -1.1597    -0.6935     0.0216 O.3     
  49 C49           -2.3669     0.0709     0.0432 C.3     
  50 C50           -3.5695    -0.8749     0.0428 C.3     
  51 F51           -3.5396    -1.6668    -1.1101 F       
  52 F52           -3.5173    -1.6962     1.1742 F       
  53 H53           -0.9456     1.9169     0.0482 H       
  54 H54            3.3484    -0.5006    -0.0188 H       
  55 H55            3.3183     1.9605     0.0143 H       
  56 H56            1.1742     3.1683     0.0492 H       
  57 H57            2.9215    -3.2575     0.7069 H       
  58 H58            4.5280    -3.3957     1.0314 H       
  59 H59            5.5785    -4.3966    -0.0040 H       
  60 H60            6.2104    -1.6173     1.0920 H       
  61 H61            6.9764    -3.1499     1.5766 H       
  62 H62            7.8109    -3.4533    -0.7483 H       
  63 H63            6.5806    -0.6924    -1.1754 H       
  64 H64            7.6161    -1.5516    -2.3416 H       
  65 H65            5.9884    -3.3794    -2.5099 H       
  66 H66            5.1529    -1.8344    -2.8133 H       
  67 H67           10.0828    -2.7149    -1.1823 H       
  68 H68            9.3524    -1.2307    -1.8406 H       
  69 H69           11.7298    -0.8736    -1.1871 H       
  70 H70           10.6242     0.1309    -0.2185 H       
  71 H71           10.8259    -2.0292     2.7325 H       
  72 H72           10.0955    -0.5451     2.0742 H       
  73 H73            8.4485    -2.3863     2.0789 H       
  74 H74            9.5541    -3.3908     1.1103 H       
  75 H75            1.4482    -2.0491     2.9130 H       
  76 H76           -2.2901    -4.7038     1.0714 H       
  77 H77           -2.5835    -6.8190    -1.0449 H       
  78 H78           -1.6952    -9.0737    -1.4741 H       
  79 H79            1.6042    -7.3828    -3.5810 H       
  80 H80            2.7710    -5.6599    -3.3367 H       
  81 H81            1.8425    -5.7367    -4.8534 H       
  82 H82            2.4904    -4.1795    -4.2844 H       
  83 H83           -2.3902     0.6879     0.9415 H       
  84 H84           -2.4076     0.7108    -0.8382 H       
  85 H85           -4.4903    -0.2919     0.0593 H       
@<TRIPOS>BOND
   1    1    2 ar
   2    1    6 ar
   3    1   53 1
   4    2    3 ar
   5    2   48 1
   6    3    4 ar
   7    3    7 1
   8    4    5 ar
   9    4   54 1
  10    5    6 ar
  11    5   55 1
  12    6   56 1
  13    7    8 1
  14    7    9 1
  15    7   27 1
  16    8   25 2
  17    8   26 am
  18    9   10 am
  19    9   57 1
  20   10   11 am
  21   10   12 2
  22   11   13 1
  23   11   17 1
  24   13   14 1
  25   13   58 1
  26   13   59 1
  27   14   15 1
  28   14   60 1
  29   14   61 1
  30   15   16 1
  31   15   18 1
  32   15   62 1
  33   16   17 1
  34   16   63 1
  35   16   64 1
  36   17   65 1
  37   17   66 1
  38   18   19 1
  39   18   23 1
  40   19   20 1
  41   19   67 1
  42   19   68 1
  43   20   21 1
  44   20   69 1
  45   20   70 1
  46   21   22 1
  47   21   24 1
  48   22   23 1
  49   22   71 1
  50   22   72 1
  51   23   73 1
  52   23   74 1
  53   26   45 am
  54   26   28 1
  55   27   28 ar
  56   27   29 ar
  57   28   32 ar
  58   29   30 ar
  59   29   75 1
  60   30   31 ar
  61   30   43 1
  62   31   32 ar
  63   31   33 1
  64   32   76 1
  65   34   35 ar
  66   34   36 ar
  67   34   45 1
  68   35   41 1
  69   35   39 ar
  70   36   37 ar
  71   36   77 1
  72   37   38 ar
  73   37   78 1
  74   38   39 ar
  75   38   40 1
  76   39   79 1
  77   41   42 1
  78   42   80 1
  79   42   81 1
  80   42   82 1
  81   43   44 3
  82   45   46 2
  83   45   47 2
  84   48   49 1
  85   49   50 1
  86   49   83 1
  87   49   84 1
  88   50   51 1
  89   50   52 1
  90   50   85 1

#	End of record

