#	Name: ASD01850069
#	Creating user name:	WinNT
#	Creation time:	15. 06. 2019 19:38

#	Modifying user name:	WinNT
#	Modification time:	15. 06. 2019 19:38

#	Program:	/corina/corina34_cracker 3.40 0067  02.08.2006

@<TRIPOS>MOLECULE
ASD01850069
  56   59    0    0    0
SMALL
NO_CHARGES


@<TRIPOS>ATOM
   1 C1             0.9447     2.5714     1.3862 C.ar    
   2 C2             0.4382     1.3221     1.0823 C.ar    
   3 C3             1.2444     0.3784     0.4731 C.ar    
   4 C4             2.5574     0.6838     0.1680 C.ar    
   5 C5             3.0654     1.9330     0.4719 C.ar    
   6 C6             2.2590     2.8779     1.0806 C.ar    
   7 C7             4.6078     4.3003    -1.3719 C.3     
   8 N8             4.5652     2.8457    -1.2035 N.am    
   9 C9             6.0488     4.7900    -1.2150 C.3     
  10 C10            4.5885     2.0412    -2.2845 C.2     
  11 C11            4.8611     2.6202    -3.6489 C.3     
  12 O12            4.3901     0.8513    -2.1593 O.2     
  13 C13            5.6415     1.6049    -4.4870 C.3     
  14 C14            3.5344     2.9426    -4.3403 C.3     
  15 C15            3.8159     3.5628    -5.7125 C.3     
  16 N16            4.6871     2.6556    -6.4718 N.am    
  17 C17            5.9468     2.2099    -5.8608 C.3     
  18 S18            4.2572     2.1446    -7.9872 S.o2    
  19 C19            4.9152     3.3075    -9.1359 C.ar    
  20 C20            6.1668     3.1194    -9.6461 C.ar    
  21 C21            6.6881     4.0434   -10.5588 C.ar    
  22 C22            5.9157     5.1572   -10.9407 C.ar    
  23 C23            4.6413     5.3225   -10.4034 C.ar    
  24 C24            4.1524     4.4044    -9.5180 C.ar    
  25 C25            7.9507     4.1525   -11.2822 C.2     
  26 N26            7.9003     5.2315   -12.0099 N.2     
  27 N27            6.6717     5.8754   -11.8298 N.pl3   
  28 O28            4.9498     0.9241    -8.2106 O.2     
  29 O29            2.8431     2.2611    -8.0638 O.2     
  30 C30            4.4973     2.2655     0.1400 C.3     
  31 Cl31           2.8960     4.4471     1.4620 Cl      
  32 H32            0.3136     3.3100     1.8581 H       
  33 H33           -0.5875     1.0827     1.3211 H       
  34 H34            0.8481    -0.5978     0.2358 H       
  35 H35            3.1868    -0.0538    -0.3076 H       
  36 H36            4.2411     4.5621    -2.3644 H       
  37 H37            3.9795     4.7721    -0.6163 H       
  38 H38            6.3814     4.6185    -0.1913 H       
  39 H39            6.6948     4.2445    -1.9031 H       
  40 H40            6.0969     5.8556    -1.4390 H       
  41 H41            5.4477     3.5330    -3.5454 H       
  42 H42            6.5757     1.3580    -3.9824 H       
  43 H43            5.0451     0.7011    -4.6118 H       
  44 H44            2.9579     2.0263    -4.4665 H       
  45 H45            2.9689     3.6479    -3.7314 H       
  46 H46            2.8777     3.7030    -6.2494 H       
  47 H47            4.3129     4.5243    -5.5839 H       
  48 H48            6.6177     3.0611    -5.7443 H       
  49 H49            6.4147     1.4575    -6.4957 H       
  50 H50            6.7519     2.2623    -9.3470 H       
  51 H51            4.0399     6.1730   -10.6886 H       
  52 H52            3.1635     4.5366    -9.1043 H       
  53 H53            8.7791     3.4619   -11.2245 H       
  54 H54            6.3984     6.6982   -12.2648 H       
  55 H55            4.8812     2.9828     0.8654 H       
  56 H56            5.0986     1.3570     0.1743 H       
@<TRIPOS>BOND
   1    1    2 ar
   2    1    6 ar
   3    1   32 1
   4    2    3 ar
   5    2   33 1
   6    3    4 ar
   7    3   34 1
   8    4    5 ar
   9    4   35 1
  10    5    6 ar
  11    5   30 1
  12    6   31 1
  13    7    8 1
  14    7    9 1
  15    7   36 1
  16    7   37 1
  17    8   10 am
  18    8   30 1
  19    9   38 1
  20    9   39 1
  21    9   40 1
  22   10   11 1
  23   10   12 2
  24   11   13 1
  25   11   14 1
  26   11   41 1
  27   13   17 1
  28   13   42 1
  29   13   43 1
  30   14   15 1
  31   14   44 1
  32   14   45 1
  33   15   16 1
  34   15   46 1
  35   15   47 1
  36   16   17 1
  37   16   18 am
  38   17   48 1
  39   17   49 1
  40   18   19 1
  41   18   28 2
  42   18   29 2
  43   19   20 ar
  44   19   24 ar
  45   20   21 ar
  46   20   50 1
  47   21   22 ar
  48   21   25 1
  49   22   23 ar
  50   22   27 1
  51   23   24 ar
  52   23   51 1
  53   24   52 1
  54   25   26 2
  55   25   53 1
  56   26   27 1
  57   27   54 1
  58   30   55 1
  59   30   56 1

#	End of record

