#	Name: ASD01140277
#	Creating user name:	WinNT
#	Creation time:	15. 06. 2019 19:00

#	Modifying user name:	WinNT
#	Modification time:	15. 06. 2019 19:00

#	Program:	/corina/corina34_cracker 3.40 0067  02.08.2006

@<TRIPOS>MOLECULE
ASD01140277
  31   31    0    0    0
SMALL
NO_CHARGES


@<TRIPOS>ATOM
   1 C1            -0.0163     1.3476     0.0095 C.2     
   2 C2            -1.2808     2.1012     0.0686 C.ar    
   3 C3            -2.5111     1.4383    -0.0243 C.ar    
   4 C4            -3.6695     2.1914     0.0425 C.ar    
   5 C5            -3.5814     3.5634     0.1975 C.ar    
   6 N6            -2.4120     4.1678     0.2825 N.ar    
   7 C7            -1.2747     3.4964     0.2250 C.ar    
   8 O8             0.8743     1.4411     1.0220 O.3     
   9 C9             0.2530     0.5520    -1.0630 C.2     
  10 C10            1.5084    -0.0750    -1.1769 C.2     
  11 O11            2.3534     0.0938    -0.3167 O.2     
  12 N12           -4.9928     1.5347    -0.0516 N.pl3   
  13 O13           -5.0647     0.3266    -0.1885 O.2     
  14 O14           -6.0096     2.2025     0.0078 O.2     
  15 O15           -0.0965     4.1585     0.3170 O.3     
  16 C16           -0.1602     5.5773     0.4750 C.3     
  17 O17            1.7753    -0.8636    -2.2400 O.3     
  18 C18            3.1854    -2.3183    -3.5575 C.3     
  19 C19            3.0692    -1.4679    -2.2909 C.3     
  20 H20           -2.5542     0.3660    -0.1454 H       
  21 H21           -4.4865     4.1502     0.2496 H       
  22 H22            0.5958     2.0288     1.7377 H       
  23 H23           -0.4966     0.4023    -1.8260 H       
  24 H24            0.8501     5.9819     0.5356 H       
  25 H25           -0.6763     6.0152    -0.3794 H       
  26 H26           -0.7031     5.8171     1.3893 H       
  27 H27            2.4215    -3.0957    -3.5446 H       
  28 H28            3.0452    -1.6856    -4.4340 H       
  29 H29            4.1724    -2.7793    -3.5963 H       
  30 H30            3.8331    -0.6905    -2.3038 H       
  31 H31            3.2094    -2.1006    -1.4144 H       
@<TRIPOS>BOND
   1    1    8 1
   2    1    9 2
   3    1    2 1
   4    2    3 ar
   5    2    7 ar
   6    3    4 ar
   7    3   20 1
   8    4    5 ar
   9    4   12 1
  10    5    6 ar
  11    5   21 1
  12    6    7 ar
  13    7   15 1
  14    8   22 1
  15    9   10 1
  16    9   23 1
  17   10   11 2
  18   10   17 1
  19   12   13 2
  20   12   14 2
  21   15   16 1
  22   16   24 1
  23   16   25 1
  24   16   26 1
  25   17   19 1
  26   18   19 1
  27   18   27 1
  28   18   28 1
  29   18   29 1
  30   19   30 1
  31   19   31 1

#	End of record

