#	Name: ASD01900390
#	Creating user name:	WinNT
#	Creation time:	15. 06. 2019 19:51

#	Modifying user name:	WinNT
#	Modification time:	15. 06. 2019 19:51

#	Program:	/corina/corina34_cracker 3.40 0067  02.08.2006

@<TRIPOS>MOLECULE
ASD01900390
  25   27    0    0    0
SMALL
NO_CHARGES


@<TRIPOS>ATOM
   1 C1            -0.0642     1.3075    -0.3609 C.ar    
   2 C2            -0.0239    -0.0667    -0.1642 C.ar    
   3 N3             1.1166    -0.7162    -0.1083 N.ar    
   4 C4             2.2817    -0.0861    -0.2382 C.ar    
   5 C5             2.3164     1.3068    -0.4405 C.ar    
   6 C6             1.1150     2.0121    -0.5019 C.ar    
   7 C7             3.6778    -0.5288    -0.2212 C.2     
   8 N8             4.4313     0.5237    -0.3986 N.2     
   9 N9             3.6350     1.6653    -0.5367 N.pl3   
  10 N10            4.1243    -1.8427    -0.0460 N.pl3   
  11 C11            5.4790    -2.1392    -0.1658 C.ar    
  12 C12            6.0327    -3.2341     0.4962 C.ar    
  13 C13            6.3171    -1.3515    -0.9563 C.ar    
  14 C14            7.6528    -1.6786    -1.0494 C.ar    
  15 N15            8.1416    -2.7210    -0.4031 N.ar    
  16 C16            7.3810    -3.4941     0.3508 C.ar    
  17 Cl17           8.0864    -4.8498     1.1743 Cl      
  18 H18           -1.0129     1.8216    -0.4077 H       
  19 H19           -0.9493    -0.6126    -0.0545 H       
  20 H20            1.1070     3.0810    -0.6564 H       
  21 H21            3.9640     2.5667    -0.6782 H       
  22 H22            3.4898    -2.5472     0.1589 H       
  23 H23            5.4159    -3.8697     1.1143 H       
  24 H24            5.9243    -0.4976    -1.4882 H       
  25 H25            8.3082    -1.0745    -1.6593 H       
@<TRIPOS>BOND
   1    1    2 ar
   2    1    6 ar
   3    1   18 1
   4    2    3 ar
   5    2   19 1
   6    3    4 ar
   7    4    5 ar
   8    4    7 1
   9    5    6 ar
  10    5    9 1
  11    6   20 1
  12    7    8 2
  13    7   10 1
  14    8    9 1
  15    9   21 1
  16   10   11 1
  17   10   22 1
  18   11   12 ar
  19   11   13 ar
  20   12   16 ar
  21   12   23 1
  22   13   14 ar
  23   13   24 1
  24   14   15 ar
  25   14   25 1
  26   15   16 ar
  27   16   17 1

#	End of record

