#	Name: ASD00841878
#	Creating user name:	WinNT
#	Creation time:	15. 06. 2019 18:43

#	Modifying user name:	WinNT
#	Modification time:	15. 06. 2019 18:43

#	Program:	/corina/corina34_cracker 3.40 0067  02.08.2006

@<TRIPOS>MOLECULE
ASD00841878
  91   96    0    0    0
SMALL
NO_CHARGES


@<TRIPOS>ATOM
   1 C1             1.0189     1.5605    -0.3194 C.ar    
   2 C2             1.3238     0.2343    -0.5882 C.ar    
   3 C3             1.2516    -0.7109     0.4250 C.ar    
   4 C4             0.8766    -0.3292     1.6984 C.ar    
   5 C5             0.5727     0.9935     1.9637 C.ar    
   6 C6             0.6443     1.9372     0.9560 C.ar    
   7 C7             1.5817    -2.1527     0.1364 C.3     
   8 C8             1.3102    -3.0126     1.3524 C.2     
   9 C9             0.7788    -2.6547    -1.0653 C.3     
  10 C10           -0.6906    -2.4304    -0.8168 C.2     
  11 N11           -1.6009    -2.8899    -1.6981 N.am    
  12 O12           -1.0539    -1.8363     0.1762 O.2     
  13 C13           -3.0306    -2.5859    -1.5342 C.3     
  14 C14           -3.5630    -2.0220    -2.8559 C.3     
  15 N15           -3.2473    -2.9555    -3.9454 N.3     
  16 C16           -1.7958    -3.1005    -4.1190 C.3     
  17 C17           -1.1904    -3.7035    -2.8525 C.3     
  18 C18           -3.8884    -2.5373    -5.1992 C.3     
  19 C19           -3.4384    -3.4589    -6.3361 C.3     
  20 C20           -4.1558    -3.0567    -7.6267 C.3     
  21 N21           -5.6079    -3.1607    -7.4338 N.3     
  22 C22           -6.0700    -2.2496    -6.3789 C.3     
  23 C23           -5.4097    -2.6278    -5.0511 C.3     
  24 C24           -6.3250    -2.9157    -8.6923 C.3     
  25 O25            0.2382    -3.1725     1.8968 O.2     
  26 N26            2.4800    -3.5651     1.7155 N.am    
  27 C27            3.0642    -2.3179    -0.1073 C.ar    
  28 C28            3.5290    -3.1781     0.8799 C.ar    
  29 C29            3.9200    -1.8014    -1.0539 C.ar    
  30 C30            5.2629    -2.1385    -1.0287 C.ar    
  31 C31            5.7392    -2.9955    -0.0493 C.ar    
  32 C32            4.8806    -3.5142     0.9010 C.ar    
  33 Cl33           6.3461    -1.4902    -2.2205 Cl      
  34 F34            7.0491    -3.3253    -0.0235 F       
  35 C35            2.4018    -6.2267     2.4115 C.ar    
  36 C36            1.1585    -6.6031     1.9251 C.ar    
  37 C37            3.4416    -7.1363     2.4241 C.ar    
  38 C38            3.2439    -8.4206     1.9521 C.ar    
  39 C39            2.0054    -8.7983     1.4667 C.ar    
  40 C40            0.9625    -7.8928     1.4523 C.ar    
  41 H41            1.8534    -9.8022     1.0985 H       
  42 O42            0.1339    -5.7103     1.9120 O.3     
  43 C43           -1.1183    -6.1673     1.3970 C.3     
  44 C44           -7.8019    -3.2739    -8.5157 C.3     
  45 S45            2.6567    -4.5877     3.0060 S.o2    
  46 O46            4.0210    -4.5099     3.3957 O.2     
  47 O47            1.5790    -4.3091     3.8893 O.2     
  48 O48            1.6922    -0.1388    -1.8420 O.3     
  49 C49            2.1788     0.2892    -4.1702 C.3     
  50 C50            1.6361     0.8628    -2.8597 C.3     
  51 H51            1.0787     2.2988    -1.1054 H       
  52 H52            0.8202    -1.0645     2.4875 H       
  53 H53            0.2789     1.2898     2.9599 H       
  54 H54            0.4064     2.9696     1.1657 H       
  55 H55            1.0834    -2.1101    -1.9590 H       
  56 H56            0.9648    -3.7193    -1.2074 H       
  57 H57           -3.5720    -3.4973    -1.2805 H       
  58 H58           -3.1596    -1.8477    -0.7427 H       
  59 H59           -4.6433    -1.8943    -2.7879 H       
  60 H60           -3.0942    -1.0584    -3.0553 H       
  61 H61           -1.5946    -3.7549    -4.9672 H       
  62 H62           -1.3517    -2.1218    -4.3008 H       
  63 H63           -0.1033    -3.7067    -2.9321 H       
  64 H64           -1.5538    -4.7228    -2.7223 H       
  65 H65           -3.6042    -1.5103    -5.4287 H       
  66 H66           -2.3612    -3.3667    -6.4747 H       
  67 H67           -3.6869    -4.4908    -6.0881 H       
  68 H68           -3.8960    -2.0292    -7.8816 H       
  69 H69           -3.8484    -3.7201    -8.4351 H       
  70 H70           -5.8012    -1.2260    -6.6396 H       
  71 H71           -7.1528    -2.3269    -6.2810 H       
  72 H72           -5.6892    -3.6466    -4.7828 H       
  73 H73           -5.7409    -1.9417    -4.2716 H       
  74 H74           -6.2360    -1.8635    -8.9623 H       
  75 H75           -5.8938    -3.5312    -9.4819 H       
  76 H76            3.5444    -1.1342    -1.8155 H       
  77 H77            5.2583    -4.1813     1.6618 H       
  78 H78            4.4099    -6.8437     2.8027 H       
  79 H79            4.0582    -9.1299     1.9622 H       
  80 H80           -0.0048    -8.1885     1.0738 H       
  81 H81           -0.9918    -6.4831     0.3615 H       
  82 H82           -1.4709    -7.0091     1.9931 H       
  83 H83           -1.8473    -5.3584     1.4437 H       
  84 H84           -7.8909    -4.3261    -8.2457 H       
  85 H85           -8.2331    -2.6584    -7.7261 H       
  86 H86           -8.3340    -3.0921    -9.4495 H       
  87 H87            2.2178     1.0767    -4.9229 H       
  88 H88            3.1811    -0.1065    -4.0061 H       
  89 H89            1.5242    -0.5111    -4.5152 H       
  90 H90            0.6027     1.1790    -3.0018 H       
  91 H91            2.2402     1.7193    -2.5602 H       
@<TRIPOS>BOND
   1    1    2 ar
   2    1    6 ar
   3    1   51 1
   4    2    3 ar
   5    2   48 1
   6    3    4 ar
   7    3    7 1
   8    4    5 ar
   9    4   52 1
  10    5    6 ar
  11    5   53 1
  12    6   54 1
  13    7    8 1
  14    7    9 1
  15    7   27 1
  16    8   25 2
  17    8   26 am
  18    9   10 1
  19    9   55 1
  20    9   56 1
  21   10   11 am
  22   10   12 2
  23   11   13 1
  24   11   17 1
  25   13   14 1
  26   13   57 1
  27   13   58 1
  28   14   15 1
  29   14   59 1
  30   14   60 1
  31   15   16 1
  32   15   18 1
  33   16   17 1
  34   16   61 1
  35   16   62 1
  36   17   63 1
  37   17   64 1
  38   18   19 1
  39   18   23 1
  40   18   65 1
  41   19   20 1
  42   19   66 1
  43   19   67 1
  44   20   21 1
  45   20   68 1
  46   20   69 1
  47   21   22 1
  48   21   24 1
  49   22   23 1
  50   22   70 1
  51   22   71 1
  52   23   72 1
  53   23   73 1
  54   24   44 1
  55   24   74 1
  56   24   75 1
  57   26   45 am
  58   26   28 1
  59   27   28 ar
  60   27   29 ar
  61   28   32 ar
  62   29   30 ar
  63   29   76 1
  64   30   31 ar
  65   30   33 1
  66   31   32 ar
  67   31   34 1
  68   32   77 1
  69   35   36 ar
  70   35   37 ar
  71   35   45 1
  72   36   42 1
  73   36   40 ar
  74   37   38 ar
  75   37   78 1
  76   38   39 ar
  77   38   79 1
  78   39   40 ar
  79   39   41 1
  80   40   80 1
  81   42   43 1
  82   43   81 1
  83   43   82 1
  84   43   83 1
  85   44   84 1
  86   44   85 1
  87   44   86 1
  88   45   46 2
  89   45   47 2
  90   48   50 1
  91   49   50 1
  92   49   87 1
  93   49   88 1
  94   49   89 1
  95   50   90 1
  96   50   91 1

#	End of record

