#	Name: ASD02508171
#	Creating user name:	WinNT
#	Creation time:	15. 06. 2019 20:23

#	Modifying user name:	WinNT
#	Modification time:	15. 06. 2019 20:23

#	Program:	/corina/corina34_cracker 3.40 0067  02.08.2006

@<TRIPOS>MOLECULE
ASD02508171
  39   41    0    0    0
SMALL
NO_CHARGES


@<TRIPOS>ATOM
   1 C1             0.2699     0.6130    -0.3477 C.ar    
   2 C2             0.0222    -0.7461    -0.5431 C.ar    
   3 C3            -1.2529    -1.2720    -0.4366 C.ar    
   4 C4            -2.3158    -0.4447    -0.1301 C.ar    
   5 C5            -2.0912     0.9070     0.0676 C.ar    
   6 C6            -0.8246     1.4330    -0.0325 C.ar    
   7 S7            -3.9440    -1.1042     0.0074 S.o2    
   8 N8            -4.2119    -1.4180     1.6112 N.am    
   9 C9            -3.4097    -2.3413     2.2856 C.ar    
  10 C10           -2.8928    -2.0311     3.5372 C.ar    
  11 N11            1.5960     0.9801    -0.4890 N.am    
  12 C12            2.4935     0.0363    -0.7896 C.2     
  13 S13            1.5884    -1.4817    -0.9110 S.3     
  14 O14           -4.8333    -0.0552    -0.3502 O.2     
  15 O15           -3.9236    -2.3638    -0.6500 O.2     
  16 C16            2.0084     2.3749    -0.3134 C.3     
  17 O17            3.6905     0.1891    -0.9484 O.2     
  18 C18           -3.1317    -3.5741     1.7089 C.ar    
  19 C19           -2.3381    -4.4847     2.3785 C.ar    
  20 C20           -1.8209    -4.1706     3.6219 C.ar    
  21 C21           -2.1000    -2.9464     4.2012 C.ar    
  22 C22           -2.0359    -5.8223     1.7536 C.3     
  23 C23           -1.5341    -2.6085     5.5565 C.3     
  24 H24           -1.4171    -2.3279    -0.5931 H       
  25 H25           -2.9206     1.5559     0.3072 H       
  26 H26           -0.6715     2.4903     0.1259 H       
  27 H27           -4.9259    -0.9606     2.0822 H       
  28 H28           -3.1105    -1.0752     3.9902 H       
  29 H29            2.2649     2.5491     0.7316 H       
  30 H30            2.8770     2.5785    -0.9396 H       
  31 H31            1.1900     3.0347    -0.6015 H       
  32 H32           -3.5359    -3.8203     0.7381 H       
  33 H33           -1.2012    -4.8848     4.1437 H       
  34 H34           -1.1283    -5.7469     1.1548 H       
  35 H35           -1.8931    -6.5657     2.5378 H       
  36 H36           -2.8679    -6.1218     1.1162 H       
  37 H37           -0.5647    -2.1251     5.4352 H       
  38 H38           -2.2142    -1.9336     6.0762 H       
  39 H39           -1.4142    -3.5224     6.1383 H       
@<TRIPOS>BOND
   1    1    2 ar
   2    1   11 1
   3    1    6 ar
   4    2    3 ar
   5    2   13 1
   6    3    4 ar
   7    3   24 1
   8    4    5 ar
   9    4    7 1
  10    5    6 ar
  11    5   25 1
  12    6   26 1
  13    7    8 am
  14    7   14 2
  15    7   15 2
  16    8    9 1
  17    8   27 1
  18    9   10 ar
  19    9   18 ar
  20   10   21 ar
  21   10   28 1
  22   11   12 am
  23   11   16 1
  24   12   13 1
  25   12   17 2
  26   16   29 1
  27   16   30 1
  28   16   31 1
  29   18   19 ar
  30   18   32 1
  31   19   20 ar
  32   19   22 1
  33   20   21 ar
  34   20   33 1
  35   21   23 1
  36   22   34 1
  37   22   35 1
  38   22   36 1
  39   23   37 1
  40   23   38 1
  41   23   39 1

#	End of record

