#	Name: ASD06170321
#	Creating user name:	WinNT
#	Creation time:	15. 06. 2019 21:05

#	Modifying user name:	WinNT
#	Modification time:	15. 06. 2019 21:05

#	Program:	/corina/corina34_cracker 3.40 0067  02.08.2006

@<TRIPOS>MOLECULE
ASD06170321
  57   61    0    0    0
SMALL
NO_CHARGES


@<TRIPOS>ATOM
   1 N1             0.0604     1.6715    -0.3197 N.am    
   2 N2             0.2486     0.3601     0.1269 N.pl3   
   3 C3             1.5580     0.0473     0.0930 C.2     
   4 C4             2.2583     1.1419    -0.3750 C.2     
   5 C5             1.2630     2.1931    -0.6392 C.2     
   6 C6             3.7100     1.2380    -0.5700 C.2     
   7 O7             4.4231     0.2868    -0.3097 O.2     
   8 N8             4.2531     2.3795    -1.0373 N.am    
   9 C9            -0.8202    -0.5400     0.5673 C.3     
  10 C10            2.1581    -1.2744     0.4980 C.3     
  11 C11            5.6445     2.5356    -1.0581 C.ar    
  12 C12            6.4655     1.4258    -1.2058 C.ar    
  13 C13            7.8383     1.5794    -1.2263 C.ar    
  14 C14            8.3974     2.8417    -1.0991 C.ar    
  15 C15            7.5770     3.9537    -0.9513 C.ar    
  16 C16            6.2033     3.8013    -0.9368 C.ar    
  17 O17            9.7489     2.9917    -1.1186 O.3     
  18 N18           11.6284     3.8778     2.4439 N.ar    
  19 C19           12.3895     3.6618     1.3644 C.ar    
  20 C20           11.7836     3.3548     0.1217 C.ar    
  21 C21           10.3739     3.2820     0.0487 C.ar    
  22 C22            9.6512     3.5167     1.2054 C.ar    
  23 C23           10.3188     3.8132     2.3867 C.ar    
  24 O24            1.4816     3.3127    -1.0630 O.2     
  25 C25           -1.1690     2.3302    -0.4236 C.ar    
  26 C26           -1.3209     3.6071     0.1012 C.ar    
  27 C27           12.5831     3.1297    -1.0084 C.ar    
  28 C28           13.9380     3.2073    -0.9059 C.ar    
  29 C29           14.5466     3.5096     0.3156 C.ar    
  30 C30           13.7894     3.7353     1.4428 C.ar    
  31 O31           15.9010     3.5807     0.3914 O.3     
  32 C32           -2.5361     4.2550    -0.0035 C.ar    
  33 C33           -3.6010     3.6335    -0.6296 C.ar    
  34 C34           -3.4531     2.3622    -1.1532 C.ar    
  35 C35           -2.2389     1.7111    -1.0569 C.ar    
  36 F36            8.1218     5.1837    -0.8269 F       
  37 H37            3.6801     3.0929    -1.3592 H       
  38 H38           -1.2508    -1.0435    -0.2983 H       
  39 H39           -0.4108    -1.2820     1.2528 H       
  40 H40           -1.5940     0.0358     1.0749 H       
  41 H41            2.1958    -1.9366    -0.3670 H       
  42 H42            3.1674    -1.1141     0.8772 H       
  43 H43            1.5453    -1.7284     1.2767 H       
  44 H44            6.0308     0.4421    -1.3042 H       
  45 H45            8.4763     0.7156    -1.3412 H       
  46 H46            5.5649     4.6655    -0.8264 H       
  47 H47            8.5723     3.4702     1.1894 H       
  48 H48            9.7445     3.9948     3.2831 H       
  49 H49           -0.4898     4.0927     0.5909 H       
  50 H50           12.1247     2.8949    -1.9577 H       
  51 H51           14.5501     3.0330    -1.7785 H       
  52 H52           14.2693     3.9685     2.3818 H       
  53 H53           16.2589     4.4620     0.2174 H       
  54 H54           -2.6549     5.2479     0.4043 H       
  55 H55           -4.5505     4.1421    -0.7096 H       
  56 H56           -4.2867     1.8796    -1.6416 H       
  57 H57           -2.1240     0.7182    -1.4660 H       
@<TRIPOS>BOND
   1    1    2 1
   2    1    5 am
   3    1   25 1
   4    2    3 1
   5    2    9 1
   6    3    4 2
   7    3   10 1
   8    4    5 1
   9    4    6 1
  10    5   24 2
  11    6    7 2
  12    6    8 am
  13    8   11 1
  14    8   37 1
  15    9   38 1
  16    9   39 1
  17    9   40 1
  18   10   41 1
  19   10   42 1
  20   10   43 1
  21   11   12 ar
  22   11   16 ar
  23   12   13 ar
  24   12   44 1
  25   13   14 ar
  26   13   45 1
  27   14   15 ar
  28   14   17 1
  29   15   16 ar
  30   15   36 1
  31   16   46 1
  32   17   21 1
  33   18   19 ar
  34   18   23 ar
  35   19   20 ar
  36   19   30 ar
  37   20   21 ar
  38   20   27 ar
  39   21   22 ar
  40   22   23 ar
  41   22   47 1
  42   23   48 1
  43   25   26 ar
  44   25   35 ar
  45   26   32 ar
  46   26   49 1
  47   27   28 ar
  48   27   50 1
  49   28   29 ar
  50   28   51 1
  51   29   30 ar
  52   29   31 1
  53   30   52 1
  54   31   53 1
  55   32   33 ar
  56   32   54 1
  57   33   34 ar
  58   33   55 1
  59   34   35 ar
  60   34   56 1
  61   35   57 1

#	End of record

