#	Name: ASD01811872
#	Creating user name:	WinNT
#	Creation time:	15. 06. 2019 19:27

#	Modifying user name:	WinNT
#	Modification time:	15. 06. 2019 19:27

#	Program:	/corina/corina34_cracker 3.40 0067  02.08.2006

@<TRIPOS>MOLECULE
ASD01811872
  56   60    0    0    0
SMALL
NO_CHARGES


@<TRIPOS>ATOM
   1 C1            -0.0165     1.3630     0.0095 C.ar    
   2 C2             0.0021    -0.0041     0.0020 C.ar    
   3 C3             1.2077    -0.6932    -0.0132 C.ar    
   4 C4             2.4062    -0.0151    -0.0210 C.ar    
   5 C5             1.1832     2.0677     0.0019 C.ar    
   6 C6             1.5649     3.4864     0.0058 C.2     
   7 C7             2.4104     1.3759    -0.0136 C.ar    
   8 N8             3.3874     2.3370    -0.0177 N.pl3   
   9 N9             2.8802     3.5163    -0.0066 N.2     
  10 C10            0.6551     4.6459     0.0208 C.2     
  11 O11           -0.5487     4.4741     0.0313 O.2     
  12 N12            1.1574     5.8966     0.0227 N.am    
  13 C13            4.8250     2.0551    -0.0318 C.3     
  14 C14            5.3053     1.9651    -1.4574 C.ar    
  15 C15            5.7292     0.6632    -3.4219 C.ar    
  16 C16            5.2892     0.7490    -2.1154 C.ar    
  17 C17            5.7558     3.0998    -2.1066 C.ar    
  18 C18            6.1962     3.0205    -3.4134 C.ar    
  19 C19            6.1866     1.7999    -4.0748 C.ar    
  20 N20            6.6339     1.7161    -5.4008 N.pl3   
  21 C21            7.1020     2.7405    -6.1490 C.2     
  22 C22            7.4291     2.2461    -7.3654 C.2     
  23 C23            7.1522     0.8745    -7.3616 C.2     
  24 N24            6.6806     0.5551    -6.1833 N.2     
  25 C25            0.2531     7.0490     0.0375 C.3     
  26 C26           -0.3835     9.7801     0.8857 C.3     
  27 C27            0.0165     9.4642    -0.5569 C.3     
  28 C28            0.9609     8.2606    -0.5724 C.3     
  29 C29           -0.1469     7.3649     1.4801 C.3     
  30 C30           -1.0913     8.5685     1.4956 C.3     
  31 O31            1.3345     7.9656    -1.9198 O.3     
  32 H32           -0.9574     1.8931     0.0169 H       
  33 H33           -0.9283    -0.5524     0.0083 H       
  34 H34            1.2053    -1.7732    -0.0186 H       
  35 H35            3.3383    -0.5605    -0.0325 H       
  36 H36            2.1176     6.0336     0.0142 H       
  37 H37            5.3574     2.8560     0.4811 H       
  38 H38            5.0148     1.1094     0.4759 H       
  39 H39            5.7167    -0.2869    -3.9352 H       
  40 H40            4.9326    -0.1347    -1.6072 H       
  41 H41            5.7631     4.0490    -1.5916 H       
  42 H42            6.5474     3.9072    -3.9201 H       
  43 H43            7.1974     3.7688    -5.8327 H       
  44 H44            7.8327     2.8104    -8.1931 H       
  45 H45            7.3050     0.1956    -8.1875 H       
  46 H46           -0.6391     6.8184    -0.5447 H       
  47 H47            0.5086    10.0108     1.4679 H       
  48 H48           -1.0563    10.6376     0.8967 H       
  49 H49           -0.8757     9.2335    -1.1391 H       
  50 H50            0.5208    10.3274    -0.9914 H       
  51 H51            1.8531     8.4913     0.0098 H       
  52 H52           -0.6512     6.5018     1.9146 H       
  53 H53            0.7452     7.5956     2.0623 H       
  54 H54           -1.3763     8.7936     2.5233 H       
  55 H55           -1.9835     8.3379     0.9134 H       
  56 H56            1.7892     8.6908    -2.3697 H       
@<TRIPOS>BOND
   1    1    2 ar
   2    1    5 ar
   3    1   32 1
   4    2    3 ar
   5    2   33 1
   6    3    4 ar
   7    3   34 1
   8    4    7 ar
   9    4   35 1
  10    5    7 ar
  11    5    6 1
  12    6    9 2
  13    6   10 1
  14    7    8 1
  15    8    9 1
  16    8   13 1
  17   10   11 2
  18   10   12 am
  19   12   25 1
  20   12   36 1
  21   13   14 1
  22   13   37 1
  23   13   38 1
  24   14   17 ar
  25   14   16 ar
  26   15   16 ar
  27   15   19 ar
  28   15   39 1
  29   16   40 1
  30   17   18 ar
  31   17   41 1
  32   18   19 ar
  33   18   42 1
  34   19   20 1
  35   20   21 1
  36   20   24 1
  37   21   22 2
  38   21   43 1
  39   22   23 1
  40   22   44 1
  41   23   24 2
  42   23   45 1
  43   25   29 1
  44   25   28 1
  45   25   46 1
  46   26   27 1
  47   26   30 1
  48   26   47 1
  49   26   48 1
  50   27   28 1
  51   27   49 1
  52   27   50 1
  53   28   31 1
  54   28   51 1
  55   29   30 1
  56   29   52 1
  57   29   53 1
  58   30   54 1
  59   30   55 1
  60   31   56 1

#	End of record

