#	Name: ASD01150963
#	Creating user name:	WinNT
#	Creation time:	15. 06. 2019 19:05

#	Modifying user name:	WinNT
#	Modification time:	15. 06. 2019 19:05

#	Program:	/corina/corina34_cracker 3.40 0067  02.08.2006

@<TRIPOS>MOLECULE
ASD01150963
  56   58    0    0    0
SMALL
NO_CHARGES


@<TRIPOS>ATOM
   1 N1            -0.0170     1.3997     0.0097 N.am    
   2 C2             0.0021    -0.0041     0.0020 C.2     
   3 N3             1.0895    -0.7695    -0.0120 N.2     
   4 C4             0.7328    -2.0404    -0.0156 C.2     
   5 N5            -0.6406    -2.1116    -0.0035 N.pl3   
   6 C6            -1.1060    -0.8301     0.0137 C.2     
   7 O7            -2.4047    -0.4413     0.0297 O.3     
   8 C8            -3.0143    -0.2680     1.3105 C.3     
   9 C9             1.6474    -3.1845    -0.0308 C.2     
  10 O10            2.9814    -2.9817    -0.0422 O.3     
  11 C11           -1.4144    -3.2793    -0.0027 C.ar    
  12 C12           -1.3659    -4.1454     1.0815 C.ar    
  13 C13           -2.1300    -5.2959     1.0792 C.ar    
  14 C14           -2.9425    -5.5859    -0.0015 C.ar    
  15 C15           -2.9926    -4.7256    -1.0830 C.ar    
  16 C16           -2.2359    -3.5702    -1.0838 C.ar    
  17 C17            1.1409     2.0894     0.0024 C.2     
  18 O18            2.2021     1.4958    -0.0109 O.2     
  19 C19            1.1209     3.5661     0.0105 C.ar    
  20 C20            2.3197     4.2842     0.0029 C.ar    
  21 C21            2.2934     5.6648     0.0106 C.ar    
  22 C22            1.0831     6.3364     0.0263 C.ar    
  23 C23           -0.1086     5.6292     0.0339 C.ar    
  24 C24           -0.0963     4.2510     0.0200 C.ar    
  25 O25            1.2044    -4.3173    -0.0333 O.2     
  26 C26            3.8140    -4.1430    -0.0567 C.3     
  27 C27            5.2834    -3.7168    -0.0680 C.3     
  28 C28            3.5368    -4.9850     1.1903 C.3     
  29 C29            3.5134    -4.9704    -1.3080 C.3     
  30 O30            6.1161    -4.8781    -0.0826 O.3     
  31 C31            7.5156    -4.5897    -0.0940 C.3     
  32 Cl32           3.8381     3.4428    -0.0156 Cl      
  33 Cl33           1.0580     8.0722     0.0371 Cl      
  34 H34           -0.8635     1.8732     0.0163 H       
  35 H35           -2.4732     0.4950     1.8701 H       
  36 H36           -4.0508     0.0434     1.1805 H       
  37 H37           -2.9839    -1.2101     1.8579 H       
  38 H38           -0.7311    -3.9198     1.9256 H       
  39 H39           -2.0927    -5.9699     1.9223 H       
  40 H40           -3.5388    -6.4864    -0.0011 H       
  41 H41           -3.6278    -4.9550    -1.9258 H       
  42 H42           -2.2755    -2.8986    -1.9287 H       
  43 H43            3.2188     6.2216     0.0048 H       
  44 H44           -1.0494     6.1594     0.0461 H       
  45 H45           -1.0261     3.7016     0.0260 H       
  46 H46            5.4809    -3.1169    -0.9564 H       
  47 H47            5.4976    -3.1273     0.8234 H       
  48 H48            2.4899    -5.2886     1.1983 H       
  49 H49            4.1719    -5.8708     1.1792 H       
  50 H50            3.7510    -4.3955     2.0817 H       
  51 H51            3.7109    -4.3706    -2.1964 H       
  52 H52            4.1485    -5.8562    -1.3192 H       
  53 H53            2.4665    -5.2740    -1.3000 H       
  54 H54            7.7595    -4.0079    -0.9830 H       
  55 H55            7.7761    -4.0183     0.7969 H       
  56 H56            8.0788    -5.5228    -0.1047 H       
@<TRIPOS>BOND
   1    1    2 1
   2    1   17 am
   3    1   34 1
   4    2    3 1
   5    2    6 2
   6    3    4 2
   7    4    5 1
   8    4    9 1
   9    5    6 1
  10    5   11 1
  11    6    7 1
  12    7    8 1
  13    8   35 1
  14    8   36 1
  15    8   37 1
  16    9   10 1
  17    9   25 2
  18   10   26 1
  19   11   12 ar
  20   11   16 ar
  21   12   13 ar
  22   12   38 1
  23   13   14 ar
  24   13   39 1
  25   14   15 ar
  26   14   40 1
  27   15   16 ar
  28   15   41 1
  29   16   42 1
  30   17   18 2
  31   17   19 1
  32   19   20 ar
  33   19   24 ar
  34   20   21 ar
  35   20   32 1
  36   21   22 ar
  37   21   43 1
  38   22   23 ar
  39   22   33 1
  40   23   24 ar
  41   23   44 1
  42   24   45 1
  43   26   27 1
  44   26   28 1
  45   26   29 1
  46   27   30 1
  47   27   46 1
  48   27   47 1
  49   28   48 1
  50   28   49 1
  51   28   50 1
  52   29   51 1
  53   29   52 1
  54   29   53 1
  55   30   31 1
  56   31   54 1
  57   31   55 1
  58   31   56 1

#	End of record

