#	Name: ASD04590010
#	Creating user name:	WinNT
#	Creation time:	15. 06. 2019 20:50

#	Modifying user name:	WinNT
#	Modification time:	15. 06. 2019 20:50

#	Program:	/corina/corina34_cracker 3.40 0067  02.08.2006

@<TRIPOS>MOLECULE
ASD04590010
  25   26    0    0    0
SMALL
NO_CHARGES


@<TRIPOS>ATOM
   1 N1            -0.0768     1.2683    -0.0494 N.pl3   
   2 N2            -0.0362    -0.0145     0.0020 N.2     
   3 C3             1.1935    -0.4417    -0.2150 C.2     
   4 C4             2.0020     0.7055    -0.4236 C.2     
   5 C5             1.1600     1.7668    -0.3105 C.2     
   6 C6             1.6424    -1.8458    -0.2366 C.2     
   7 O7             2.8109    -2.1074    -0.4490 O.2     
   8 N8             0.7578    -2.8395    -0.0209 N.am    
   9 C9             1.1622    -4.1732    -0.1375 C.ar    
  10 C10            2.4402    -4.5498     0.2548 C.ar    
  11 C11            2.8364    -5.8677     0.1383 C.ar    
  12 C12            1.9622    -6.8119    -0.3683 C.ar    
  13 C13            0.6893    -6.4402    -0.7602 C.ar    
  14 C14            0.2847    -5.1251    -0.6406 C.ar    
  15 N15            3.3788     0.7377    -0.6894 N.pl3   
  16 H16           -0.8759     1.8037     0.0760 H       
  17 H17            1.4242     2.8092    -0.4098 H       
  18 H18           -0.1593    -2.6296     0.2151 H       
  19 H19            3.1235    -3.8128     0.6502 H       
  20 H20            3.8301    -6.1612     0.4428 H       
  21 H21            2.2745    -7.8418    -0.4583 H       
  22 H22            0.0090    -7.1799    -1.1558 H       
  23 H23           -0.7113    -4.8362    -0.9423 H       
  24 H24            3.8811    -0.0901    -0.7473 H       
  25 H25            3.8287     1.5878    -0.8153 H       
@<TRIPOS>BOND
   1    1    2 1
   2    1    5 1
   3    1   16 1
   4    2    3 2
   5    3    4 1
   6    3    6 1
   7    4    5 2
   8    4   15 1
   9    5   17 1
  10    6    7 2
  11    6    8 am
  12    8    9 1
  13    8   18 1
  14    9   10 ar
  15    9   14 ar
  16   10   11 ar
  17   10   19 1
  18   11   12 ar
  19   11   20 1
  20   12   13 ar
  21   12   21 1
  22   13   14 ar
  23   13   22 1
  24   14   23 1
  25   15   24 1
  26   15   25 1

#	End of record

