#	Name: ASD03330132
#	Creating user name:	WinNT
#	Creation time:	15. 06. 2019 20:36

#	Modifying user name:	WinNT
#	Modification time:	15. 06. 2019 20:36

#	Program:	/corina/corina34_cracker 3.40 0067  02.08.2006

@<TRIPOS>MOLECULE
ASD03330132
  42   44    0    0    0
SMALL
NO_CHARGES


@<TRIPOS>ATOM
   1 C1            -4.2840    -6.0880     3.0128 C.ar    
   2 C2            -5.1652    -5.0994     3.4141 C.ar    
   3 C3            -5.2894    -3.9408     2.6727 C.ar    
   4 C4            -4.5287    -3.7683     1.5239 C.ar    
   5 C5            -3.6449    -4.7616     1.1235 C.ar    
   6 C6            -3.5209    -5.9162     1.8712 C.ar    
   7 Cl7           -4.1302    -7.5431     3.9470 Cl      
   8 N8            -4.6530    -2.5951     0.7703 N.am    
   9 C9            -5.8429    -1.9668     0.6928 C.2     
  10 N10           -5.9393    -0.7822     0.0574 N.am    
  11 O11           -6.8294    -2.4688     1.1961 O.2     
  12 C12           -7.1914    -0.1819    -0.1176 C.ar    
  13 C13           -8.3175    -0.9686    -0.3050 C.ar    
  14 C14           -9.5613    -0.3667    -0.4788 C.ar    
  15 C15           -9.6671     1.0230    -0.4634 C.ar    
  16 C16           -8.5407     1.7994    -0.2766 C.ar    
  17 C17           -7.3071     1.2028    -0.0980 C.ar    
  18 C18          -10.7704    -1.2024    -0.6803 C.ar    
  19 N19          -10.6602    -2.5255    -0.6940 N.ar    
  20 C20          -12.0096    -0.5923    -0.8473 C.ar    
  21 C21          -13.1336    -1.3823    -1.0345 C.ar    
  22 C22          -12.9816    -2.7579    -1.0485 C.ar    
  23 C23          -11.7141    -3.3052    -0.8703 C.ar    
  24 N24          -11.5533    -4.6857    -0.8836 N.pl3   
  25 C25          -12.7141    -5.5565    -1.0845 C.3     
  26 H26           -5.7565    -5.2341     4.3078 H       
  27 H27           -5.9778    -3.1698     2.9860 H       
  28 H28           -3.0524    -4.6300     0.2302 H       
  29 H29           -2.8334    -6.6890     1.5605 H       
  30 H30           -3.8828    -2.2343     0.3039 H       
  31 H31           -5.1410    -0.3456    -0.2786 H       
  32 H32           -8.2303    -2.0450    -0.3165 H       
  33 H33          -10.6303     1.4926    -0.5978 H       
  34 H34           -8.6247     2.8761    -0.2657 H       
  35 H35           -6.4291     1.8146     0.0477 H       
  36 H36          -12.0951     0.4842    -0.8310 H       
  37 H37          -14.1072    -0.9337    -1.1662 H       
  38 H38          -13.8380    -3.4001    -1.1922 H       
  39 H39          -10.6724    -5.0726    -0.7599 H       
  40 H40          -13.4398    -5.3836    -0.2898 H       
  41 H41          -13.1717    -5.3354    -2.0487 H       
  42 H42          -12.3946    -6.5984    -1.0643 H       
@<TRIPOS>BOND
   1    1    2 ar
   2    1    7 1
   3    1    6 ar
   4    2    3 ar
   5    2   26 1
   6    3    4 ar
   7    3   27 1
   8    4    5 ar
   9    4    8 1
  10    5    6 ar
  11    5   28 1
  12    6   29 1
  13    8    9 am
  14    8   30 1
  15    9   10 am
  16    9   11 2
  17   10   12 1
  18   10   31 1
  19   12   13 ar
  20   12   17 ar
  21   13   14 ar
  22   13   32 1
  23   14   15 ar
  24   14   18 1
  25   15   16 ar
  26   15   33 1
  27   16   17 ar
  28   16   34 1
  29   17   35 1
  30   18   19 ar
  31   18   20 ar
  32   19   23 ar
  33   20   21 ar
  34   20   36 1
  35   21   22 ar
  36   21   37 1
  37   22   23 ar
  38   22   38 1
  39   23   24 1
  40   24   25 1
  41   24   39 1
  42   25   40 1
  43   25   41 1
  44   25   42 1

#	End of record

