#	Name: ASD01150652
#	Creating user name:	WinNT
#	Creation time:	15. 06. 2019 19:04

#	Modifying user name:	WinNT
#	Modification time:	15. 06. 2019 19:04

#	Program:	/corina/corina34_cracker 3.40 0067  02.08.2006

@<TRIPOS>MOLECULE
ASD01150652
  58   61    0    0    0
SMALL
NO_CHARGES


@<TRIPOS>ATOM
   1 C1             1.0928     1.0663    -0.1910 C.ar    
   2 C2             1.2678    -0.2632     0.1409 C.ar    
   3 C3             2.4637     0.3865     2.1215 C.ar    
   4 C4             2.2893     1.7218     1.7894 C.ar    
   5 C5             1.6029     2.0626     0.6322 C.ar    
   6 N6             1.4252     3.4094     0.2943 N.am    
   7 C7             0.2034     3.8495    -0.0545 C.2     
   8 N8            -0.0033     5.1378    -0.3852 N.am    
   9 C9             1.0239     6.0125    -0.3705 C.2     
  10 C10            2.3626     5.5375     0.0100 C.2     
  11 N11            2.5208     4.2801     0.3299 N.2     
  12 O12            0.8450     7.1788    -0.6687 O.2     
  13 C13           -1.3447     5.5905    -0.7618 C.3     
  14 O14           -0.7303     3.0705    -0.0718 O.2     
  15 C15           -2.0837     6.0500     0.4686 C.ar    
  16 O16            3.4172     6.3935     0.0344 O.3     
  17 C17            4.6836     5.8520     0.4151 C.3     
  18 C18            1.9514    -0.6068     1.2936 C.ar    
  19 N19            3.1561     0.0388     3.2881 N.am    
  20 C20            3.1716     0.8823     4.3392 C.2     
  21 O21            2.6631     1.9793     4.2440 O.2     
  22 C22            3.8206     0.4623     5.6328 C.3     
  23 C23           -2.0021     7.3704     0.8700 C.ar    
  24 C24           -2.6786     7.7966     1.9986 C.ar    
  25 C25           -3.4387     6.9031     2.7287 C.ar    
  26 C26           -3.5226     5.5747     2.3273 C.ar    
  27 C27           -2.8464     5.1523     1.1906 C.ar    
  28 F28            2.1210    -1.9079     1.6156 F       
  29 Cl29          -4.2872     7.4384     4.1455 Cl      
  30 N30           -4.2899     4.6677     3.0634 N.3     
  31 C31           -3.7157     4.4548     4.3999 C.3     
  32 C32           -4.6175     3.5037     5.1912 C.3     
  33 O33           -4.7661     2.2808     4.4646 O.3     
  34 C34           -5.3233     2.4513     3.1585 C.3     
  35 C35           -4.4287     3.3917     2.3467 C.3     
  36 H36            0.5626     1.3316    -1.0937 H       
  37 H37            0.8700    -1.0358    -0.5004 H       
  38 H38            2.6864     2.4950     2.4304 H       
  39 H39           -1.2644     6.4175    -1.4673 H       
  40 H40           -1.8887     4.7681    -1.2264 H       
  41 H41            4.6155     5.4424     1.4228 H       
  42 H42            4.9644     5.0611    -0.2804 H       
  43 H43            5.4369     6.6395     0.3931 H       
  44 H44            3.6245    -0.8090     3.3396 H       
  45 H45            4.2190    -0.5469     5.5285 H       
  46 H46            4.6315     1.1501     5.8725 H       
  47 H47            3.0807     0.4799     6.4330 H       
  48 H48           -1.4084     8.0706     0.3012 H       
  49 H49           -2.6125     8.8287     2.3096 H       
  50 H50           -2.9097     4.1211     0.8759 H       
  51 H51           -2.7217     4.0180     4.3036 H       
  52 H52           -3.6457     5.4089     4.9222 H       
  53 H53           -4.1664     3.2978     6.1619 H       
  54 H54           -5.5954     3.9636     5.3337 H       
  55 H55           -5.3828     1.4842     2.6592 H       
  56 H56           -6.3218     2.8805     3.2419 H       
  57 H57           -4.8792     3.5698     1.3702 H       
  58 H58           -3.4461     2.9380     2.2175 H       
@<TRIPOS>BOND
   1    1    2 ar
   2    1    5 ar
   3    1   36 1
   4    2   18 ar
   5    2   37 1
   6    3    4 ar
   7    3   19 1
   8    3   18 ar
   9    4    5 ar
  10    4   38 1
  11    5    6 1
  12    6    7 am
  13    6   11 1
  14    7    8 am
  15    7   14 2
  16    8    9 am
  17    8   13 1
  18    9   10 1
  19    9   12 2
  20   10   11 2
  21   10   16 1
  22   13   15 1
  23   13   39 1
  24   13   40 1
  25   15   23 ar
  26   15   27 ar
  27   16   17 1
  28   17   41 1
  29   17   42 1
  30   17   43 1
  31   18   28 1
  32   19   20 am
  33   19   44 1
  34   20   21 2
  35   20   22 1
  36   22   45 1
  37   22   46 1
  38   22   47 1
  39   23   24 ar
  40   23   48 1
  41   24   25 ar
  42   24   49 1
  43   25   26 ar
  44   25   29 1
  45   26   27 ar
  46   26   30 1
  47   27   50 1
  48   30   31 1
  49   30   35 1
  50   31   32 1
  51   31   51 1
  52   31   52 1
  53   32   33 1
  54   32   53 1
  55   32   54 1
  56   33   34 1
  57   34   35 1
  58   34   55 1
  59   34   56 1
  60   35   57 1
  61   35   58 1

#	End of record

