#	Name: ASD03730076
#	Creating user name:	WinNT
#	Creation time:	15. 06. 2019 20:43

#	Modifying user name:	WinNT
#	Modification time:	15. 06. 2019 20:43

#	Program:	/corina/corina34_cracker 3.40 0067  02.08.2006

@<TRIPOS>MOLECULE
ASD03730076
  58   63    0    0    0
SMALL
NO_CHARGES


@<TRIPOS>ATOM
   1 C1            -0.5229    -0.0980     1.6355 C.2     
   2 C2            -0.0318    -0.0162     0.2132 C.3     
   3 O3             0.2064    -0.5256     2.5052 O.2     
   4 N4            -1.7706     0.3092     1.9421 N.am    
   5 O5             6.5769    -0.9162     2.8083 O.3     
   6 C6             7.6825    -1.6394     3.0478 C.2     
   7 O7             7.6416    -2.7662     2.3186 O.3     
   8 C8             6.4915    -2.7667     1.5978 C.ar    
   9 C9             5.8133    -1.5906     1.9116 C.ar    
  10 C10            5.9470    -3.6598     0.6927 C.ar    
  11 C11            4.7209    -3.3927     0.0937 C.ar    
  12 C12            4.0457    -2.2191     0.4243 C.ar    
  13 C13            4.5893    -1.3243     1.3205 C.ar    
  14 O14            4.0260    -4.1189    -0.8284 O.3     
  15 C15            2.7584    -2.2366    -0.3510 C.3     
  16 C16            2.6513    -3.6862    -0.8369 C.3     
  17 N17            1.3842    -0.4036     0.1610 N.3     
  18 C18            1.5567    -1.8342     0.5088 C.3     
  19 C19            2.7507    -1.2545    -1.4875 C.ar    
  20 C20            3.3842    -1.2437    -2.7131 C.ar    
  21 C21            3.1872    -0.1933    -3.5899 C.ar    
  22 C22            2.3523     0.8515    -3.2378 C.ar    
  23 C23            1.7181     0.8498    -2.0133 C.ar    
  24 C24            1.9132    -0.2026    -1.1215 C.ar    
  25 O25            8.5791    -1.3237     3.8047 O.2     
  26 C26           -2.2562     0.1557     3.2454 C.ar    
  27 C27           -1.3995     0.3009     4.3288 C.ar    
  28 C28           -1.8819     0.1488     5.6139 C.ar    
  29 C29           -3.2163    -0.1479     5.8225 C.ar    
  30 C30           -4.0718    -0.2937     4.7459 C.ar    
  31 C31           -3.5969    -0.1366     3.4585 C.ar    
  32 C32           -3.7393    -0.3133     7.2262 C.3     
  33 C33           -4.8395     0.7179     7.4853 C.3     
  34 C34           -4.3111    -1.7224     7.3947 C.3     
  35 H35           -0.6163    -0.6907    -0.4124 H       
  36 H36           -0.1427     1.0051    -0.1513 H       
  37 H37           -2.3319     0.7086     1.2593 H       
  38 H38            6.4771    -4.5689     0.4498 H       
  39 H39            4.0601    -0.4145     1.5624 H       
  40 H40            2.2387    -3.7273    -1.8450 H       
  41 H41            2.0533    -4.2825    -0.1478 H       
  42 H42            0.6728    -2.4095     0.2334 H       
  43 H43            1.7819    -1.9511     1.5689 H       
  44 H44            4.0364    -2.0592    -2.9887 H       
  45 H45            3.6848    -0.1884    -4.5484 H       
  46 H46            2.1968     1.6712    -3.9236 H       
  47 H47            1.0668     1.6682    -1.7443 H       
  48 H48           -0.3572     0.5323     4.1665 H       
  49 H49           -1.2162     0.2613     6.4568 H       
  50 H50           -5.1134    -0.5257     4.9121 H       
  51 H51           -4.2666    -0.2458     2.6182 H       
  52 H52           -2.9264    -0.1637     7.9367 H       
  53 H53           -5.2178     0.5983     8.5005 H       
  54 H54           -4.4322     1.7218     7.3652 H       
  55 H55           -5.6524     0.5683     6.7747 H       
  56 H56           -3.5273    -2.4570     7.2101 H       
  57 H57           -4.6894    -1.8420     8.4099 H       
  58 H58           -5.1240    -1.8720     6.6841 H       
@<TRIPOS>BOND
   1    1    2 1
   2    1    3 2
   3    1    4 am
   4    2   17 1
   5    2   35 1
   6    2   36 1
   7    4   26 1
   8    4   37 1
   9    5    6 1
  10    5    9 1
  11    6    7 1
  12    6   25 2
  13    7    8 1
  14    8    9 ar
  15    8   10 ar
  16    9   13 ar
  17   10   11 ar
  18   10   38 1
  19   11   12 ar
  20   11   14 1
  21   12   13 ar
  22   12   15 1
  23   13   39 1
  24   14   16 1
  25   15   16 1
  26   15   18 1
  27   15   19 1
  28   16   40 1
  29   16   41 1
  30   17   18 1
  31   17   24 1
  32   18   42 1
  33   18   43 1
  34   19   20 ar
  35   19   24 ar
  36   20   21 ar
  37   20   44 1
  38   21   22 ar
  39   21   45 1
  40   22   23 ar
  41   22   46 1
  42   23   24 ar
  43   23   47 1
  44   26   27 ar
  45   26   31 ar
  46   27   28 ar
  47   27   48 1
  48   28   29 ar
  49   28   49 1
  50   29   30 ar
  51   29   32 1
  52   30   31 ar
  53   30   50 1
  54   31   51 1
  55   32   33 1
  56   32   34 1
  57   32   52 1
  58   33   53 1
  59   33   54 1
  60   33   55 1
  61   34   56 1
  62   34   57 1
  63   34   58 1

#	End of record

