#	Name: ASD03240479
#	Creating user name:	WinNT
#	Creation time:	15. 06. 2019 20:35

#	Modifying user name:	WinNT
#	Modification time:	15. 06. 2019 20:35

#	Program:	/corina/corina34_cracker 3.40 0067  02.08.2006

@<TRIPOS>MOLECULE
ASD03240479
  41   43    0    0    0
SMALL
NO_CHARGES


@<TRIPOS>ATOM
   1 C1            -0.0167     1.3782     0.0096 C.ar    
   2 C2            -2.4482     1.7884     2.2356 C.ar    
   3 C3            -1.6434     2.5664     1.4231 C.ar    
   4 C4            -1.3320     2.1136     0.0199 C.3     
   5 C5            -2.7365     2.1985     3.5217 C.ar    
   6 C6            -2.2155     3.3983     4.0007 C.ar    
   7 C7            -1.4060     4.1783     3.1780 C.ar    
   8 C8            -1.1239     3.7588     1.8936 C.ar    
   9 C9            -2.5227     3.8447     5.3831 C.2     
  10 C10           -2.0815     4.9911     5.9769 C.2     
  11 N11           -2.5839     5.0221     7.2276 N.pl3   
  12 N12           -3.3555     3.8694     7.4179 N.2     
  13 C13           -3.3275     3.1647     6.3178 C.2     
  14 C14            0.0021    -0.0041     0.0020 C.ar    
  15 C15            1.1707     2.0862     0.0021 C.ar    
  16 C16            2.3773     1.4123    -0.0136 C.ar    
  17 C17            2.3967     0.0290    -0.0212 C.ar    
  18 C18            1.2081    -0.6791    -0.0127 C.ar    
  19 O19           -1.2482     3.2516    -0.8404 O.3     
  20 C20           -2.4914     3.6178    -1.4425 C.3     
  21 C21           -2.2838     4.8413    -2.3374 C.3     
  22 Cl22           3.9119    -0.8181    -0.0414 Cl      
  23 N23           -1.4000     4.4858    -3.4557 N.3     
  24 H24           -2.8552     0.8606     1.8617 H       
  25 H25           -2.1221     1.4499    -0.3315 H       
  26 H26           -3.3652     1.5905     4.1552 H       
  27 H27           -0.9996     5.1093     3.5446 H       
  28 H28           -0.4961     4.3626     1.2550 H       
  29 H29           -1.4450     5.7385     5.5265 H       
  30 H30           -2.4361     5.7220     7.8827 H       
  31 H31           -3.8283     2.2217     6.1559 H       
  32 H32           -0.9258    -0.5566     0.0079 H       
  33 H33            1.1554     3.1661     0.0081 H       
  34 H34            3.3048     1.9655    -0.0202 H       
  35 H35            1.2226    -1.7589    -0.0183 H       
  36 H36           -2.8628     2.7873    -2.0430 H       
  37 H37           -3.2161     3.8558    -0.6639 H       
  38 H38           -3.2459     5.1744    -2.7263 H       
  39 H39           -1.8294     5.6436    -1.7561 H       
  40 H40           -1.2473     5.2779    -4.0618 H       
  41 H41           -0.5245     4.1130    -3.1203 H       
@<TRIPOS>BOND
   1    1   14 ar
   2    1   15 ar
   3    1    4 1
   4    2    3 ar
   5    2    5 ar
   6    2   24 1
   7    3    4 1
   8    3    8 ar
   9    4   19 1
  10    4   25 1
  11    5    6 ar
  12    5   26 1
  13    6    7 ar
  14    6    9 1
  15    7    8 ar
  16    7   27 1
  17    8   28 1
  18    9   10 2
  19    9   13 1
  20   10   11 1
  21   10   29 1
  22   11   12 1
  23   11   30 1
  24   12   13 2
  25   13   31 1
  26   14   18 ar
  27   14   32 1
  28   15   16 ar
  29   15   33 1
  30   16   17 ar
  31   16   34 1
  32   17   18 ar
  33   17   22 1
  34   18   35 1
  35   19   20 1
  36   20   21 1
  37   20   36 1
  38   20   37 1
  39   21   23 1
  40   21   38 1
  41   21   39 1
  42   23   40 1
  43   23   41 1

#	End of record

