#	Name: ASD04882343
#	Creating user name:	WinNT
#	Creation time:	15. 06. 2019 20:54

#	Modifying user name:	WinNT
#	Modification time:	15. 06. 2019 20:54

#	Program:	/corina/corina34_cracker 3.40 0067  02.08.2006

@<TRIPOS>MOLECULE
ASD04882343
  71   76    0    0    0
SMALL
NO_CHARGES


@<TRIPOS>ATOM
   1 N1            -0.0383     1.4844     0.0768 N.am    
   2 C2             0.2267     0.1162    -0.0665 C.ar    
   3 C3            -0.8232    -0.8060    -0.0408 C.ar    
   4 C4            -0.5616    -2.1640    -0.1829 C.ar    
   5 C5             0.7323    -2.6055    -0.3490 C.ar    
   6 C6             1.7869    -1.6887    -0.3751 C.ar    
   7 C7             1.5260    -0.3222    -0.2391 C.ar    
   8 N8            -2.1329    -0.3641     0.1278 N.3     
   9 C9            -2.9687    -0.7439    -1.0197 C.3     
  10 C10           -2.7032    -0.8737     1.3826 C.3     
  11 C11           -4.1109    -0.3027     1.5691 C.3     
  12 N12           -4.9467    -0.6824     0.4215 N.3     
  13 C13           -4.3764    -0.1728    -0.8333 C.3     
  14 C14            3.1729    -2.1620    -0.5525 C.2     
  15 O15            3.4150    -3.3535    -0.5381 O.2     
  16 C16            0.8034     2.3931    -0.4543 C.2     
  17 C17            0.4831     3.8219    -0.3777 C.2     
  18 O18            1.8295     2.0277    -0.9976 O.2     
  19 N19            4.1708    -1.2737    -0.7305 N.am    
  20 C20            1.2441     4.8425    -0.8719 C.2     
  21 C21            0.5615     6.0334    -0.5786 C.2     
  22 C22           -0.5717     5.6920     0.0736 C.2     
  23 O23           -0.6178     4.3583     0.1883 O.3     
  24 C24           -6.2604    -0.2392     0.5907 C.ar    
  25 C25           -6.5245     1.1169     0.7333 C.ar    
  26 C26           -7.3065    -1.1533     0.6109 C.ar    
  27 C27           -8.6040    -0.7117     0.7783 C.ar    
  28 C28           -8.8630     0.6390     0.9253 C.ar    
  29 C29           -7.8248     1.5518     0.9004 C.ar    
  30 C30           -7.0254    -2.6250     0.4498 C.3     
  31 C31            4.0617     0.1869    -0.6634 C.3     
  32 C32            5.4310     0.7621    -0.9263 C.ar    
  33 C33            6.3174    -0.2769    -1.1398 C.ar    
  34 C34            5.5739    -1.5836    -1.0218 C.3     
  35 C35            5.8719     2.0754    -0.9760 C.ar    
  36 C36            7.1958     2.3552    -1.2388 C.ar    
  37 C37            8.0964     1.3101    -1.4553 C.ar    
  38 C38            7.6472    -0.0099    -1.4034 C.ar    
  39 C39            9.5170     1.6006    -1.7378 C.2     
  40 O40            9.9467     2.8764    -1.7871 O.3     
  41 O41           10.2976     0.6891    -1.9257 O.2     
  42 H42           -0.8297     1.7776     0.5549 H       
  43 H43           -1.3749    -2.8743    -0.1626 H       
  44 H44            0.9322    -3.6611    -0.4587 H       
  45 H45            2.3389     0.3885    -0.2590 H       
  46 H46           -2.5325    -0.3444    -1.9353 H       
  47 H47           -3.0229    -1.8305    -1.0863 H       
  48 H48           -2.7545    -1.9618     1.3433 H       
  49 H49           -2.0735    -0.5690     2.2185 H       
  50 H50           -4.5471    -0.7021     2.4846 H       
  51 H51           -4.0567     0.7839     1.6357 H       
  52 H52           -4.3252     0.9153    -0.7940 H       
  53 H53           -5.0061    -0.4776    -1.6692 H       
  54 H54            2.1884     4.7511    -1.3880 H       
  55 H55            0.8818     7.0344    -0.8273 H       
  56 H56           -1.3191     6.3809     0.4386 H       
  57 H57           -5.7141     1.8305     0.7139 H       
  58 H58           -9.4177    -1.4217     0.7941 H       
  59 H59           -9.8788     0.9818     1.0554 H       
  60 H60           -8.0304     2.6058     1.0155 H       
  61 H61           -6.8573    -3.0722     1.4295 H       
  62 H62           -7.8779    -3.1075    -0.0284 H       
  63 H63           -6.1378    -2.7599    -0.1683 H       
  64 H64            3.3611     0.5401    -1.4200 H       
  65 H65            3.7191     0.4866     0.3270 H       
  66 H66            6.0011    -2.1803    -0.2159 H       
  67 H67            5.6380    -2.1314    -1.9620 H       
  68 H68            5.1749     2.8832    -0.8085 H       
  69 H69            7.5355     3.3796    -1.2774 H       
  70 H70            8.3387    -0.8226    -1.5697 H       
  71 H71           10.8848     3.0167    -1.9752 H       
@<TRIPOS>BOND
   1    1    2 1
   2    1   16 am
   3    1   42 1
   4    2    3 ar
   5    2    7 ar
   6    3    4 ar
   7    3    8 1
   8    4    5 ar
   9    4   43 1
  10    5    6 ar
  11    5   44 1
  12    6    7 ar
  13    6   14 1
  14    7   45 1
  15    8    9 1
  16    8   10 1
  17    9   13 1
  18    9   46 1
  19    9   47 1
  20   10   11 1
  21   10   48 1
  22   10   49 1
  23   11   12 1
  24   11   50 1
  25   11   51 1
  26   12   13 1
  27   12   24 1
  28   13   52 1
  29   13   53 1
  30   14   15 2
  31   14   19 am
  32   16   18 2
  33   16   17 1
  34   17   20 2
  35   17   23 1
  36   19   31 1
  37   19   34 1
  38   20   21 1
  39   20   54 1
  40   21   22 2
  41   21   55 1
  42   22   23 1
  43   22   56 1
  44   24   25 ar
  45   24   26 ar
  46   25   29 ar
  47   25   57 1
  48   26   27 ar
  49   26   30 1
  50   27   28 ar
  51   27   58 1
  52   28   29 ar
  53   28   59 1
  54   29   60 1
  55   30   61 1
  56   30   62 1
  57   30   63 1
  58   31   32 1
  59   31   64 1
  60   31   65 1
  61   32   33 ar
  62   32   35 ar
  63   33   34 1
  64   33   38 ar
  65   34   66 1
  66   34   67 1
  67   35   36 ar
  68   35   68 1
  69   36   37 ar
  70   36   69 1
  71   37   38 ar
  72   37   39 1
  73   38   70 1
  74   39   40 1
  75   39   41 2
  76   40   71 1

#	End of record

