#	Name: ASD00311374
#	Creating user name:	WinNT
#	Creation time:	15. 06. 2019 18:34

#	Modifying user name:	WinNT
#	Modification time:	15. 06. 2019 18:34

#	Program:	/corina/corina34_cracker 3.40 0067  02.08.2006

@<TRIPOS>MOLECULE
ASD00311374
  35   38    0    0    0
SMALL
NO_CHARGES


@<TRIPOS>ATOM
   1 C1            -0.0167     1.3774     0.0096 C.2     
   2 C2             0.0021    -0.0041     0.0020 C.2     
   3 C3             1.2588    -0.6768    -0.0140 C.2     
   4 C4             2.4316     0.0670    -0.0217 C.2     
   5 C5             2.3574     1.4750    -0.0134 C.2     
   6 N6             1.1647     2.0899     0.0022 N.am    
   7 C7            -1.3433    -0.5754     0.0123 C.2     
   8 C8            -2.3231     0.3263     0.0268 C.2     
   9 S9            -1.6791     1.9563     0.0358 S.3     
  10 O10            3.3821     2.1372    -0.0196 O.2     
  11 C11           -2.6755    -3.9795     0.8898 C.ar    
  12 C12           -2.4691    -2.6169     0.9313 C.ar    
  13 C13           -1.5956    -2.0344     0.0062 C.ar    
  14 C14           -0.9674    -2.8688    -0.9252 C.ar    
  15 C15           -1.2313    -4.2217    -0.8956 C.ar    
  16 N16           -2.0625    -4.7307    -0.0057 N.ar    
  17 C17            3.7477    -0.6123    -0.0379 C.ar    
  18 C18            4.5931    -0.4749    -1.1387 C.ar    
  19 C19            5.8179    -1.1102    -1.1479 C.ar    
  20 C20            6.2080    -1.8822    -0.0682 C.ar    
  21 C21            5.3739    -2.0223     1.0266 C.ar    
  22 C22            4.1491    -1.3873     1.0501 C.ar    
  23 O23            1.3086    -2.0293    -0.0214 O.3     
  24 H24            1.1324     3.0594     0.0073 H       
  25 H25           -3.3758     0.0850     0.0360 H       
  26 H26           -3.3443    -4.4389     1.6025 H       
  27 H27           -2.9743    -2.0082     1.6665 H       
  28 H28           -0.2864    -2.4590    -1.6564 H       
  29 H29           -0.7516    -4.8737    -1.6106 H       
  30 H30            4.2894     0.1273    -1.9823 H       
  31 H31            6.4732    -1.0048    -1.9999 H       
  32 H32            7.1675    -2.3778    -0.0802 H       
  33 H33            5.6839    -2.6263     1.8665 H       
  34 H34            3.5006    -1.4938     1.9071 H       
  35 H35            2.2059    -2.3898    -0.0322 H       
@<TRIPOS>BOND
   1    1    2 2
   2    1    6 1
   3    1    9 1
   4    2    3 1
   5    2    7 1
   6    3    4 2
   7    3   23 1
   8    4    5 1
   9    4   17 1
  10    5    6 am
  11    5   10 2
  12    6   24 1
  13    7    8 2
  14    7   13 1
  15    8    9 1
  16    8   25 1
  17   11   12 ar
  18   11   16 ar
  19   11   26 1
  20   12   13 ar
  21   12   27 1
  22   13   14 ar
  23   14   15 ar
  24   14   28 1
  25   15   16 ar
  26   15   29 1
  27   17   18 ar
  28   17   22 ar
  29   18   19 ar
  30   18   30 1
  31   19   20 ar
  32   19   31 1
  33   20   21 ar
  34   20   32 1
  35   21   22 ar
  36   21   33 1
  37   22   34 1
  38   23   35 1

#	End of record

