#	Name: ASD01100088
#	Creating user name:	WinNT
#	Creation time:	15. 06. 2019 18:58

#	Modifying user name:	WinNT
#	Modification time:	15. 06. 2019 18:58

#	Program:	/corina/corina34_cracker 3.40 0067  02.08.2006

@<TRIPOS>MOLECULE
ASD01100088
  42   44    0    0    0
SMALL
NO_CHARGES


@<TRIPOS>ATOM
   1 C1             0.4030     1.4450    -1.3465 C.ar    
   2 C2             0.3904     0.0687    -1.2728 C.ar    
   3 C3             1.2759    -0.5913    -0.4344 C.ar    
   4 C4             2.1788     0.1283     0.3335 C.ar    
   5 C5             2.2000     1.5049     0.2675 C.ar    
   6 C6             1.3103     2.1748    -0.5752 C.ar    
   7 C7             1.3288     3.6497    -0.6505 C.2     
   8 O8             0.5533     4.2307    -1.3849 O.2     
   9 N9             2.2053     4.3516     0.0949 N.am    
  10 C10            2.2886     5.7406    -0.0465 C.ar    
  11 C11            1.2171     7.8575    -0.4336 C.ar    
  12 C12            1.1403     6.4842    -0.2926 C.ar    
  13 C13            3.5155     6.3763     0.0644 C.ar    
  14 C14            3.5932     7.7620    -0.0774 C.ar    
  15 C15            2.4339     8.4994    -0.3302 C.ar    
  16 C16            4.8966     8.4471     0.0399 C.2     
  17 C17            5.3803     9.3759    -0.8089 C.2     
  18 N18            6.5659     9.8547    -0.5113 N.2     
  19 C19            7.1432     9.3850     0.5635 C.2     
  20 S20            6.0841     8.1967     1.3178 S.3     
  21 C21            4.6106     9.8344    -2.0207 C.3     
  22 N22            8.3633     9.7582     1.0279 N.2     
  23 C23            9.4507     9.1823     0.5589 C.2     
  24 N24            9.3472     8.1314    -0.3144 N.pl3   
  25 N25           10.6857     9.6338     0.9441 N.pl3   
  26 F26            1.2587    -1.9404    -0.3652 F       
  27 H27           -0.2843     1.9580    -2.0029 H       
  28 H28           -0.3107    -0.4966    -1.8687 H       
  29 H29            2.8663    -0.3908     0.9848 H       
  30 H30            2.9031     2.0645     0.8666 H       
  31 H31            2.7784     3.8934     0.7293 H       
  32 H32            0.3213     8.4297    -0.6251 H       
  33 H33            0.1848     5.9875    -0.3743 H       
  34 H34            4.4081     5.8007     0.2603 H       
  35 H35            2.4898     9.5722    -0.4416 H       
  36 H36            4.0345    10.7250    -1.7697 H       
  37 H37            5.3066    10.0670    -2.8266 H       
  38 H38            3.9339     9.0427    -2.3422 H       
  39 H39            8.4768     7.8601    -0.6457 H       
  40 H40           10.1442     7.6589    -0.6013 H       
  41 H41           10.7590    10.3777     1.5623 H       
  42 H42           11.4867     9.2096     0.5986 H       
@<TRIPOS>BOND
   1    1    2 ar
   2    1    6 ar
   3    1   27 1
   4    2    3 ar
   5    2   28 1
   6    3    4 ar
   7    3   26 1
   8    4    5 ar
   9    4   29 1
  10    5    6 ar
  11    5   30 1
  12    6    7 1
  13    7    8 2
  14    7    9 am
  15    9   10 1
  16    9   31 1
  17   10   13 ar
  18   10   12 ar
  19   11   12 ar
  20   11   15 ar
  21   11   32 1
  22   12   33 1
  23   13   14 ar
  24   13   34 1
  25   14   15 ar
  26   14   16 1
  27   15   35 1
  28   16   17 2
  29   16   20 1
  30   17   18 1
  31   17   21 1
  32   18   19 2
  33   19   20 1
  34   19   22 1
  35   21   36 1
  36   21   37 1
  37   21   38 1
  38   22   23 2
  39   23   24 1
  40   23   25 1
  41   24   39 1
  42   24   40 1
  43   25   41 1
  44   25   42 1

#	End of record

