#	Name: ASD01230195
#	Creating user name:	WinNT
#	Creation time:	15. 06. 2019 19:12

#	Modifying user name:	WinNT
#	Modification time:	15. 06. 2019 19:12

#	Program:	/corina/corina34_cracker 3.40 0067  02.08.2006

@<TRIPOS>MOLECULE
ASD01230195
  31   33    0    0    0
SMALL
NO_CHARGES


@<TRIPOS>ATOM
   1 C1             0.6578     1.3747     0.2304 C.2     
   2 C2             0.4225     0.0564     0.2115 C.2     
   3 N3             1.3367    -0.7452     0.3491 N.3     
   4 C4             2.5045    -0.3280    -0.3310 C.2     
   5 C5             3.0242     0.9756    -0.0163 C.2     
   6 C6             2.0376     1.8723     0.3094 C.2     
   7 C7             3.0244    -1.0860    -1.3209 C.2     
   8 N8             2.2453    -2.1413    -1.8618 N.3     
   9 C9             2.8817    -3.1727    -2.0250 C.2     
  10 C10            4.1784    -3.2062    -2.3294 C.2     
  11 C11            4.9401    -1.9528    -2.3954 C.2     
  12 C12            4.3370    -0.8525    -1.8505 C.2     
  13 Pd13           1.0020    -2.3584    -0.4979 Du      
  14 O14            1.3824    -3.7183     0.5189 O.3     
  15 O15           -0.6249    -2.4473    -1.1086 O.3     
  16 N16            0.5878    -3.8035     1.6878 N.pl3   
  17 N17           -0.9400    -3.6797    -1.7307 N.pl3   
  18 O18           -0.2129    -2.9225     1.9455 O.2     
  19 O19            0.7050    -4.7577     2.4357 O.2     
  20 O20           -2.0621    -4.1428    -1.6311 O.2     
  21 O21           -0.0889    -4.2767    -2.3654 O.2     
  22 H22           -0.1660     2.0714     0.1833 H       
  23 H23           -0.5864    -0.3035     0.0734 H       
  24 H24            1.5332    -0.8872     1.3285 H       
  25 H25            4.0756     1.2219    -0.0347 H       
  26 H26            2.2629     2.8858     0.6071 H       
  27 H27            1.8014    -1.8552    -2.7215 H       
  28 H28            2.3616    -4.1128    -1.9156 H       
  29 H29            4.6660    -4.1494    -2.5266 H       
  30 H30            5.9197    -1.9025    -2.8474 H       
  31 H31            4.8120     0.1170    -1.8217 H       
@<TRIPOS>BOND
   1    1    2 1
   2    1    6 2
   3    1   22 1
   4    2    3 2
   5    2   23 1
   6    3    4 1
   7    3   13 1
   8    3   24 1
   9    4    5 2
  10    4    7 1
  11    5    6 1
  12    5   25 1
  13    6   26 1
  14    7    8 1
  15    7   12 2
  16    8    9 2
  17    8   13 1
  18    8   27 1
  19    9   10 1
  20    9   28 1
  21   10   11 2
  22   10   29 1
  23   11   12 1
  24   11   30 1
  25   12   31 1
  26   13   14 1
  27   13   15 1
  28   14   16 1
  29   15   17 1
  30   16   18 2
  31   16   19 2
  32   17   20 2
  33   17   21 2

#	End of record

