#	Name: ASD01040047
#	Creating user name:	WinNT
#	Creation time:	15. 06. 2019 18:58

#	Modifying user name:	WinNT
#	Modification time:	15. 06. 2019 18:58

#	Program:	/corina/corina34_cracker 3.40 0067  02.08.2006

@<TRIPOS>MOLECULE
ASD01040047
  60   62    0    0    0
SMALL
NO_CHARGES


@<TRIPOS>ATOM
   1 O1            -0.0110     0.9628     0.0073 O.3     
   2 C2             1.2225     1.5323    -0.0014 C.ar    
   3 C3             1.8654     1.8109     1.1973 C.ar    
   4 C4             3.1195     2.3840     1.1918 C.ar    
   5 C5             3.7423     2.6833    -0.0193 C.ar    
   6 C6             5.0909     3.2991    -0.0289 C.2     
   7 C7             5.2878     4.6614     0.5220 C.ar    
   8 C8             6.0841     4.8502     1.6509 C.ar    
   9 C9             6.2697     6.1191     2.1575 C.ar    
  10 C10            5.6643     7.2082     1.5450 C.ar    
  11 O11            5.8492     8.4573     2.0466 O.3     
  12 C12            4.8708     7.0236     0.4207 C.ar    
  13 C13            4.6816     5.7573    -0.0910 C.ar    
  14 C14            6.1310     2.6250    -0.5350 C.2     
  15 C15            7.5152     3.2348    -0.5545 C.3     
  16 C16            8.4960     2.2368     0.0700 C.3     
  17 C17            8.3879     0.8954    -0.6571 C.3     
  18 C18            9.4310    -0.0729    -0.0956 C.3     
  19 C19            9.4087    -1.3716    -0.9042 C.3     
  20 O20           10.3829    -2.2760    -0.3798 O.3     
  21 C21            6.9896     0.3084    -0.4572 C.3     
  22 C22            5.9532     1.2316    -1.0962 C.3     
  23 C23            3.0942     2.4018    -1.2214 C.ar    
  24 C24            1.8400     1.8291    -1.2090 C.ar    
  25 H25            0.0021    -0.0041     0.0020 H       
  26 H26            1.3825     1.5788     2.1351 H       
  27 H27            3.6187     2.6012     2.1245 H       
  28 H28            6.5547     4.0034     2.1282 H       
  29 H29            6.8864     6.2660     3.0319 H       
  30 H30            6.6113     8.9218     1.6744 H       
  31 H31            4.4012     7.8728    -0.0535 H       
  32 H32            4.0681     5.6149    -0.9684 H       
  33 H33            7.8094     3.4423    -1.5833 H       
  34 H34            7.5162     4.1592     0.0231 H       
  35 H35            9.5124     2.6196    -0.0226 H       
  36 H36            8.2537     2.0999     1.1238 H       
  37 H37            8.5682     1.0448    -1.7217 H       
  38 H38           10.4202     0.3799    -0.1625 H       
  39 H39            9.2006    -0.2903     0.9473 H       
  40 H40            8.4194    -1.8243    -0.8374 H       
  41 H41            9.6390    -1.1542    -1.9472 H       
  42 H42            6.9356    -0.6758    -0.9224 H       
  43 H43            6.7870     0.2180     0.6099 H       
  44 H44            4.9506     0.8691    -0.8693 H       
  45 H45            6.1010     1.2562    -2.1759 H       
  46 H46            3.5740     2.6325    -2.1610 H       
  47 H47            1.3391     1.6074    -2.1398 H       
  48 C48           10.4444    -3.5270    -1.0677 C.3     
  49 C49           11.5152    -4.4106    -0.4246 C.3     
  50 C50           11.5810    -5.7500    -1.1610 C.3     
  51 C51           12.6518    -6.6336    -0.5179 C.3     
  52 F52           12.7119    -7.8584    -1.1913 F       
  53 H53            9.4766    -4.0245    -1.0042 H       
  54 H54           10.6962    -3.3543    -2.1141 H       
  55 H55           12.4830    -3.9131    -0.4881 H       
  56 H56           11.2634    -4.5832     0.6218 H       
  57 H57           10.6132    -6.2475    -1.0975 H       
  58 H58           11.8328    -5.5774    -2.2074 H       
  59 H59           13.6196    -6.1361    -0.5814 H       
  60 H60           12.4000    -6.8063     0.5285 H       
@<TRIPOS>BOND
   1    1   25 1
   2    1    2 1
   3    2   24 ar
   4    2    3 ar
   5    3   26 1
   6    3    4 ar
   7    4    5 ar
   8    4   27 1
   9    5   23 ar
  10    5    6 1
  11    6    7 1
  12    6   14 2
  13    7   13 ar
  14    7    8 ar
  15    8   28 1
  16    8    9 ar
  17    9   10 ar
  18    9   29 1
  19   10   12 ar
  20   10   11 1
  21   11   30 1
  22   12   13 ar
  23   12   31 1
  24   13   32 1
  25   14   15 1
  26   14   22 1
  27   15   16 1
  28   15   33 1
  29   15   34 1
  30   16   35 1
  31   16   36 1
  32   16   17 1
  33   17   18 1
  34   17   37 1
  35   17   21 1
  36   18   38 1
  37   18   39 1
  38   18   19 1
  39   19   20 1
  40   19   40 1
  41   19   41 1
  42   20   48 1
  43   21   22 1
  44   21   42 1
  45   21   43 1
  46   22   44 1
  47   22   45 1
  48   23   24 ar
  49   23   46 1
  50   24   47 1
  51   48   49 1
  52   48   53 1
  53   48   54 1
  54   49   50 1
  55   49   55 1
  56   49   56 1
  57   50   51 1
  58   50   57 1
  59   50   58 1
  60   51   52 1
  61   51   59 1
  62   51   60 1

#	End of record

