#	Name: ASD01815605
#	Creating user name:	WinNT
#	Creation time:	15. 06. 2019 19:33

#	Modifying user name:	WinNT
#	Modification time:	15. 06. 2019 19:33

#	Program:	/corina/corina34_cracker 3.40 0067  02.08.2006

@<TRIPOS>MOLECULE
ASD01815605
  34   36    0    0    0
SMALL
NO_CHARGES


@<TRIPOS>ATOM
   1 C1             0.1031     1.4770     0.3866 C.ar    
   2 C2             0.0843     0.0898     0.3786 C.ar    
   3 C3             1.2530    -0.6296     0.2384 C.ar    
   4 C4             2.4694     0.0388     0.1024 C.ar    
   5 C5             2.4836     1.4435     0.1106 C.ar    
   6 C6             1.2935     2.1569     0.2537 C.ar    
   7 N7             3.6450    -0.6678    -0.0380 N.pl3   
   8 C8             4.8372    -0.0734    -0.1709 C.2     
   9 C9             4.9777     1.3000    -0.1774 C.2     
  10 C10            3.7765     2.1382    -0.0341 C.2     
  11 O11            3.8473     3.3547    -0.0341 O.2     
  12 C12            6.3046     1.9146    -0.3251 C.2     
  13 O13            7.2900     1.2126    -0.4428 O.2     
  14 O14            6.4288     3.2569    -0.3301 O.3     
  15 C15            3.5871    -2.1316    -0.0416 C.3     
  16 C16            3.4443    -2.6253    -1.4583 C.ar    
  17 C17            4.5638    -2.7673    -2.2562 C.ar    
  18 C18            4.4338    -3.2208    -3.5581 C.ar    
  19 C19            3.1820    -3.5319    -4.0602 C.ar    
  20 C20            2.0614    -3.3892    -3.2602 C.ar    
  21 C21            2.1945    -2.9409    -1.9568 C.ar    
  22 F22            1.2193    -1.9802     0.2332 F       
  23 F23            5.5282    -3.3592    -4.3379 F       
  24 F24            0.8390    -3.6921    -3.7492 F       
  25 H25           -0.8206     2.0264     0.4931 H       
  26 H26           -0.8552    -0.4325     0.4835 H       
  27 H27            1.3054     3.2369     0.2596 H       
  28 H28            5.7185    -0.6888    -0.2760 H       
  29 H29            7.3216     3.6148    -0.4298 H       
  30 H30            4.5031    -2.5325     0.3922 H       
  31 H31            2.7313    -2.4628     0.5466 H       
  32 H32            5.5404    -2.5242    -1.8642 H       
  33 H33            3.0796    -3.8853    -5.0756 H       
  34 H34            1.3204    -2.8295    -1.3324 H       
@<TRIPOS>BOND
   1    1    2 ar
   2    1    6 ar
   3    1   25 1
   4    2    3 ar
   5    2   26 1
   6    3    4 ar
   7    3   22 1
   8    4    5 ar
   9    4    7 1
  10    5    6 ar
  11    5   10 1
  12    6   27 1
  13    7    8 1
  14    7   15 1
  15    8    9 2
  16    8   28 1
  17    9   10 1
  18    9   12 1
  19   10   11 2
  20   12   13 2
  21   12   14 1
  22   14   29 1
  23   15   16 1
  24   15   30 1
  25   15   31 1
  26   16   17 ar
  27   16   21 ar
  28   17   18 ar
  29   17   32 1
  30   18   19 ar
  31   18   23 1
  32   19   20 ar
  33   19   33 1
  34   20   21 ar
  35   20   24 1
  36   21   34 1

#	End of record

