#	Name: ASD01900056
#	Creating user name:	WinNT
#	Creation time:	15. 06. 2019 19:51

#	Modifying user name:	WinNT
#	Modification time:	15. 06. 2019 19:51

#	Program:	/corina/corina34_cracker 3.40 0067  02.08.2006

@<TRIPOS>MOLECULE
ASD01900056
  35   36    0    0    0
SMALL
NO_CHARGES


@<TRIPOS>ATOM
   1 C1             0.2867     1.6681    -0.1388 C.3     
   2 C2             0.0941     0.1579     0.0128 C.3     
   3 C3             0.8460    -0.3302     1.2527 C.3     
   4 C4             2.3363    -0.0188     1.1008 C.3     
   5 C5             2.5288     1.4914     0.9492 C.3     
   6 C6             1.7769     1.9795    -0.2906 C.3     
   7 C7             3.0769    -0.4996     2.3220 C.2     
   8 N8             3.0494    -1.8049     2.6564 N.am    
   9 O9             4.4053     3.0681     0.6517 O.3     
  10 C10            3.9967     1.7981     0.7997 C.2     
  11 O11            4.8058     0.9009     0.8130 O.2     
  12 O12            3.6977     0.2882     3.0040 O.2     
  13 C13            3.8148    -2.2678     3.7324 C.ar    
  14 C14            3.9920    -1.4690     4.8544 C.ar    
  15 C15            4.3939    -3.5289     3.6825 C.ar    
  16 C16            5.1496    -3.9838     4.7468 C.ar    
  17 C17            5.3294    -3.1835     5.8614 C.ar    
  18 C18            4.7487    -1.9286     5.9160 C.ar    
  19 Cl19           5.8734    -5.5605     4.6854 Cl      
  20 Cl20           4.9771    -0.9276     7.3158 Cl      
  21 H21           -0.2490     2.0158    -1.0221 H       
  22 H22           -0.1021     2.1744     0.7447 H       
  23 H23           -0.9676    -0.0640     0.1210 H       
  24 H24            0.4829    -0.3485    -0.8707 H       
  25 H25            0.4572     0.1761     2.1361 H       
  26 H26            0.7088    -1.4062     1.3607 H       
  27 H27            2.7251    -0.5252     0.2173 H       
  28 H28            2.1400     1.9978     1.8327 H       
  29 H29            2.1657     1.4732    -1.1741 H       
  30 H30            1.9141     3.0554    -0.3986 H       
  31 H31            2.4991    -2.4236     2.1511 H       
  32 H32            5.3565     3.2153     0.5594 H       
  33 H33            3.5393    -0.4894     4.8974 H       
  34 H34            4.2536    -4.1540     2.8130 H       
  35 H35            5.9199    -3.5409     6.6920 H       
@<TRIPOS>BOND
   1    1    2 1
   2    1    6 1
   3    1   21 1
   4    1   22 1
   5    2    3 1
   6    2   23 1
   7    2   24 1
   8    3    4 1
   9    3   25 1
  10    3   26 1
  11    4    5 1
  12    4    7 1
  13    4   27 1
  14    5    6 1
  15    5   10 1
  16    5   28 1
  17    6   29 1
  18    6   30 1
  19    7    8 am
  20    7   12 2
  21    8   13 1
  22    8   31 1
  23    9   10 1
  24    9   32 1
  25   10   11 2
  26   13   14 ar
  27   13   15 ar
  28   14   18 ar
  29   14   33 1
  30   15   16 ar
  31   15   34 1
  32   16   17 ar
  33   16   19 1
  34   17   18 ar
  35   17   35 1
  36   18   20 1

#	End of record

