#	Name: ASD03331115
#	Creating user name:	WinNT
#	Creation time:	15. 06. 2019 20:38

#	Modifying user name:	WinNT
#	Modification time:	15. 06. 2019 20:38

#	Program:	/corina/corina34_cracker 3.40 0067  02.08.2006

@<TRIPOS>MOLECULE
ASD03331115
  64   67    0    0    0
SMALL
NO_CHARGES


@<TRIPOS>ATOM
   1 N1            -0.5640     1.7424    -0.1020 N.pl3   
   2 C2            -0.3747     0.4086     0.0326 C.2     
   3 C3             0.9565    -0.2773     0.1967 C.3     
   4 N4             1.7404     0.4288     1.2220 N.3     
   5 C5             2.5356     1.5071     0.6314 C.3     
   6 C6             1.8038     2.1389    -0.5495 C.3     
   7 C7             0.4893     2.7613    -0.0713 C.3     
   8 C8            -1.9033     1.9534    -0.2571 C.2     
   9 N9            -2.5184     0.7956    -0.2019 N.2     
  10 C10           -1.6019    -0.1800    -0.0206 C.2     
  11 C11           -1.8799    -1.6222     0.0986 C.2     
  12 O12           -0.9646    -2.4065     0.2611 O.2     
  13 N13           -3.1483    -2.0722     0.0277 N.am    
  14 C14            2.5929    -0.5057     1.9690 C.3     
  15 C15           -2.5532     3.2679    -0.4540 C.ar    
  16 C16           -3.8314     3.3410    -1.0079 C.ar    
  17 C17           -4.4329     4.5719    -1.1886 C.ar    
  18 C18           -3.7679     5.7308    -0.8210 C.ar    
  19 C19           -2.5005     5.6626    -0.2720 C.ar    
  20 C20           -1.8924     4.4385    -0.0811 C.ar    
  21 F21           -5.6708     4.6456    -1.7249 F       
  22 C22           -4.7241    -3.8261    -0.5465 C.2     
  23 C23           -3.4247    -3.5060     0.1463 C.3     
  24 C24           -3.5282    -3.8848     1.6250 C.3     
  25 C25           -3.9165    -5.3596     1.7476 C.3     
  26 O26           -5.6065    -2.9954    -0.5944 O.2     
  27 C27           -2.1777    -3.6546     2.3062 C.3     
  28 C28           -4.5940    -3.0190     2.2998 C.3     
  29 N29           -4.9058    -5.0355    -1.1129 N.am    
  30 C30           -6.0140    -5.7382    -1.7769 C.3     
  31 C31           -5.3764    -7.0589    -1.3240 C.3     
  32 C32           -4.0810    -6.2309    -1.3447 C.3     
  33 F33           -5.7726    -7.4800    -0.0501 F       
  34 F34           -5.4195    -8.0756    -2.2840 F       
  35 H35            0.7983    -1.3103     0.5064 H       
  36 H36            1.4952    -0.2585    -0.7507 H       
  37 H37            2.7221     2.2701     1.3872 H       
  38 H38            3.4882     1.1034     0.2883 H       
  39 H39            2.4310     2.9125    -0.9927 H       
  40 H40            1.5920     1.3735    -1.2961 H       
  41 H41            0.2168     3.5870    -0.7286 H       
  42 H42            0.6101     3.1298     0.9474 H       
  43 H43           -3.8783    -1.4466    -0.1019 H       
  44 H44            3.2317    -1.0501     1.2735 H       
  45 H45            3.2127     0.0507     2.6721 H       
  46 H46            1.9670    -1.2110     2.5156 H       
  47 H47           -4.3495     2.4379    -1.2951 H       
  48 H48           -4.2411     6.6910    -0.9641 H       
  49 H49           -1.9871     6.5692     0.0122 H       
  50 H50           -0.9045     4.3872     0.3523 H       
  51 H51           -2.6166    -4.0713    -0.3179 H       
  52 H52           -3.1494    -5.9774     1.2806 H       
  53 H53           -4.0056    -5.6255     2.8010 H       
  54 H54           -4.8711    -5.5268     1.2487 H       
  55 H55           -1.9011    -2.6039     2.2189 H       
  56 H56           -2.2515    -3.9245     3.3597 H       
  57 H57           -1.4184    -4.2714     1.8255 H       
  58 H58           -5.5561    -3.1830     1.8145 H       
  59 H59           -4.6678    -3.2889     3.3533 H       
  60 H60           -4.3174    -1.9684     2.2125 H       
  61 H61           -6.9852    -5.5461    -1.3207 H       
  62 H62           -6.0233    -5.6093    -2.8592 H       
  63 H63           -3.5807    -6.2319    -2.3131 H       
  64 H64           -3.4053    -6.4585    -0.5203 H       
@<TRIPOS>BOND
   1    1    2 1
   2    1    7 1
   3    1    8 1
   4    2    3 1
   5    2   10 2
   6    3    4 1
   7    3   35 1
   8    3   36 1
   9    4    5 1
  10    4   14 1
  11    5    6 1
  12    5   37 1
  13    5   38 1
  14    6    7 1
  15    6   39 1
  16    6   40 1
  17    7   41 1
  18    7   42 1
  19    8    9 2
  20    8   15 1
  21    9   10 1
  22   10   11 1
  23   11   12 2
  24   11   13 am
  25   13   23 1
  26   13   43 1
  27   14   44 1
  28   14   45 1
  29   14   46 1
  30   15   16 ar
  31   15   20 ar
  32   16   17 ar
  33   16   47 1
  34   17   18 ar
  35   17   21 1
  36   18   19 ar
  37   18   48 1
  38   19   20 ar
  39   19   49 1
  40   20   50 1
  41   22   26 2
  42   22   29 am
  43   22   23 1
  44   23   24 1
  45   23   51 1
  46   24   25 1
  47   24   27 1
  48   24   28 1
  49   25   52 1
  50   25   53 1
  51   25   54 1
  52   27   55 1
  53   27   56 1
  54   27   57 1
  55   28   58 1
  56   28   59 1
  57   28   60 1
  58   29   30 1
  59   29   32 1
  60   30   31 1
  61   30   61 1
  62   30   62 1
  63   31   32 1
  64   31   33 1
  65   31   34 1
  66   32   63 1
  67   32   64 1

#	End of record

