#	Name: ASD02500035
#	Creating user name:	WinNT
#	Creation time:	15. 06. 2019 20:22

#	Modifying user name:	WinNT
#	Modification time:	15. 06. 2019 20:22

#	Program:	/corina/corina34_cracker 3.40 0067  02.08.2006

@<TRIPOS>MOLECULE
ASD02500035
  61   65    0    0    0
SMALL
NO_CHARGES


@<TRIPOS>ATOM
   1 N1             0.9319     0.5368     4.8252 N.ar    
   2 C2             0.0960     1.3418     5.4545 C.ar    
   3 C3             0.1513     2.7089     5.2698 C.ar    
   4 C4             1.1009     3.2410     4.4093 C.ar    
   5 C5             1.9676     2.3699     3.7606 C.ar    
   6 C6             1.8515     0.9998     3.9971 C.ar    
   7 N7             2.9418     2.8594     2.8829 N.3     
   8 C8             4.2920     2.6311     3.4147 C.3     
   9 C9             5.3274     3.0131     2.3516 C.3     
  10 N10            5.0575     4.3899     1.9100 N.am    
  11 C11            3.6894     4.7308     1.4914 C.3     
  12 C12            2.7185     4.2811     2.5883 C.3     
  13 C13            6.0378     5.3146     1.8899 C.2     
  14 O14            7.1354     5.0470     2.3396 O.2     
  15 C15            5.7792     6.6514     1.3222 C.ar    
  16 C16            6.3445     7.7849     1.9137 C.ar    
  17 C17            6.1013     9.0306     1.3819 C.ar    
  18 C18            5.2933     9.1627     0.2560 C.ar    
  19 C19            4.7288     8.0358    -0.3354 C.ar    
  20 C20            4.9729     6.7869     0.1883 C.ar    
  21 N21            5.0491    10.4227    -0.2788 N.am    
  22 S22            5.1581    10.6638    -1.9135 S.o2    
  23 O23            4.9702    12.0560    -2.1272 O.2     
  24 C24            6.8185    10.3079    -2.3836 C.ar    
  25 C25            7.8727    11.1082    -1.9104 C.ar    
  26 C26            9.1996    10.8022    -2.3024 C.ar    
  27 C27            9.4376     9.7102    -3.1520 C.ar    
  28 C28            8.3907     8.9575    -3.5898 C.ar    
  29 C29            7.0858     9.2536    -3.2019 C.ar    
  30 O30            4.3468     9.6678    -2.5210 O.2     
  31 N31            7.6409    12.1471    -1.1015 N.ar    
  32 C32            8.6202    12.8969    -0.6577 C.ar    
  33 C33            9.9471    12.6509    -1.0045 C.ar    
  34 C34           10.2539    11.6049    -1.8273 C.ar    
  35 O35            2.6906     0.1351     3.3712 O.3     
  36 C36            2.5203    -1.2549     3.6559 C.3     
  37 H37           -0.6423     0.9248     6.1233 H       
  38 H38           -0.5380     3.3577     5.7897 H       
  39 H39            1.1646     4.3069     4.2474 H       
  40 H40            4.4409     3.2434     4.3041 H       
  41 H41            4.4078     1.5786     3.6735 H       
  42 H42            6.3288     2.9551     2.7783 H       
  43 H43            5.2482     2.3341     1.5026 H       
  44 H44            3.6078     5.8084     1.3494 H       
  45 H45            3.4528     4.2169     0.5598 H       
  46 H46            1.6931     4.4253     2.2479 H       
  47 H47            2.8893     4.8704     3.4893 H       
  48 H48            6.9712     7.6831     2.7874 H       
  49 H49            6.5375     9.9066     1.8387 H       
  50 H50            4.1021     8.1415    -1.2086 H       
  51 H51            4.5350     5.9130    -0.2712 H       
  52 H52            4.8149    11.1606     0.3057 H       
  53 H53           10.4452     9.4687    -3.4570 H       
  54 H54            8.5747     8.1176    -4.2434 H       
  55 H55            6.2724     8.6413    -3.5623 H       
  56 H56            8.3925    13.7276    -0.0061 H       
  57 H57           10.7323    13.2868    -0.6229 H       
  58 H58           11.2769    11.3996    -2.1060 H       
  59 H59            1.5148    -1.5637     3.3701 H       
  60 H60            3.2522    -1.8335     3.0923 H       
  61 H61            2.6640    -1.4276     4.7225 H       
@<TRIPOS>BOND
   1    1    2 ar
   2    1    6 ar
   3    2    3 ar
   4    2   37 1
   5    3    4 ar
   6    3   38 1
   7    4    5 ar
   8    4   39 1
   9    5    6 ar
  10    5    7 1
  11    6   35 1
  12    7    8 1
  13    7   12 1
  14    8    9 1
  15    8   40 1
  16    8   41 1
  17    9   10 1
  18    9   42 1
  19    9   43 1
  20   10   11 1
  21   10   13 am
  22   11   12 1
  23   11   44 1
  24   11   45 1
  25   12   46 1
  26   12   47 1
  27   13   14 2
  28   13   15 1
  29   15   16 ar
  30   15   20 ar
  31   16   17 ar
  32   16   48 1
  33   17   18 ar
  34   17   49 1
  35   18   19 ar
  36   18   21 1
  37   19   20 ar
  38   19   50 1
  39   20   51 1
  40   21   22 am
  41   21   52 1
  42   22   23 2
  43   22   24 1
  44   22   30 2
  45   24   25 ar
  46   24   29 ar
  47   25   26 ar
  48   25   31 ar
  49   26   27 ar
  50   26   34 ar
  51   27   28 ar
  52   27   53 1
  53   28   29 ar
  54   28   54 1
  55   29   55 1
  56   31   32 ar
  57   32   33 ar
  58   32   56 1
  59   33   34 ar
  60   33   57 1
  61   34   58 1
  62   35   36 1
  63   36   59 1
  64   36   60 1
  65   36   61 1

#	End of record

