#	Name: ASD04550028
#	Creating user name:	WinNT
#	Creation time:	15. 06. 2019 20:49

#	Modifying user name:	WinNT
#	Modification time:	15. 06. 2019 20:49

#	Program:	/corina/corina34_cracker 3.40 0067  02.08.2006

@<TRIPOS>MOLECULE
ASD04550028
  30   31    0    0    0
SMALL
NO_CHARGES


@<TRIPOS>ATOM
   1 C1            -0.0266     1.4090     0.0392 C.ar    
   2 C2            -0.0281     0.0247     0.2184 C.ar    
   3 C3            -1.2242    -0.6620     0.2524 C.ar    
   4 C4            -2.4204     0.0184     0.1093 C.ar    
   5 C5            -2.4259     1.3908    -0.0687 C.ar    
   6 C6            -1.2375     2.0902    -0.0988 C.ar    
   7 C7            -3.7336     2.1236    -0.2237 C.3     
   8 C8            -4.4763     1.5878    -1.4494 C.3     
   9 C9             1.2519     2.1517     0.0017 C.2     
  10 C10            1.3392     3.4225    -0.7195 C.2     
  11 O11            2.2315     1.7061     0.5705 O.2     
  12 C12            2.4209     4.2621    -0.7217 C.2     
  13 C13            2.2320     5.3882    -1.4847 C.2     
  14 C14            1.0391     5.4727    -2.0882 C.2     
  15 S15            0.0747     4.1122    -1.7280 S.3     
  16 C16           -4.5771     1.9117     1.0070 C.2     
  17 O17           -4.1592     1.2351     1.9166 O.2     
  18 O18           -5.7927     2.4746     1.0926 O.3     
  19 H19            0.9049    -0.5076     0.3299 H       
  20 H20           -1.2268    -1.7331     0.3907 H       
  21 H21           -3.3539    -0.5240     0.1363 H       
  22 H22           -1.2432     3.1613    -0.2374 H       
  23 H23           -3.5403     3.1885    -0.3528 H       
  24 H24           -4.6696     0.5229    -1.3204 H       
  25 H25           -5.4221     2.1178    -1.5616 H       
  26 H26           -3.8662     1.7411    -2.3396 H       
  27 H27            3.3316     4.0590    -0.1779 H       
  28 H28            2.9899     6.1504    -1.5901 H       
  29 H29            0.7306     6.2910    -2.7219 H       
  30 H30           -6.2966     2.3102     1.9014 H       
@<TRIPOS>BOND
   1    1    2 ar
   2    1    9 1
   3    1    6 ar
   4    2    3 ar
   5    2   19 1
   6    3    4 ar
   7    3   20 1
   8    4    5 ar
   9    4   21 1
  10    5    6 ar
  11    5    7 1
  12    6   22 1
  13    7    8 1
  14    7   16 1
  15    7   23 1
  16    8   24 1
  17    8   25 1
  18    8   26 1
  19    9   10 1
  20    9   11 2
  21   10   12 2
  22   10   15 1
  23   12   13 1
  24   12   27 1
  25   13   14 2
  26   13   28 1
  27   14   15 1
  28   14   29 1
  29   16   17 2
  30   16   18 1
  31   18   30 1

#	End of record

