#	Name: ASD07930753
#	Creating user name:	WinNT
#	Creation time:	15. 06. 2019 21:13

#	Modifying user name:	WinNT
#	Modification time:	15. 06. 2019 21:13

#	Program:	/corina/corina34_cracker 3.40 0067  02.08.2006

@<TRIPOS>MOLECULE
ASD07930753
  42   44    0    0    0
SMALL
NO_CHARGES


@<TRIPOS>ATOM
   1 C1            -0.0087     1.4559     0.0047 C.3     
   2 N2             0.8168    -0.4278    -2.1588 N.2     
   3 N3            -0.8714    -1.7904    -1.2900 N.pl3   
   4 C4            -0.8977    -2.8289    -0.2547 C.3     
   5 C5            -1.2112    -2.1830     1.1020 C.3     
   6 S6             0.0275    -0.8867     1.4173 S.o2    
   7 N7             0.0087    -0.0090     0.0010 N.am    
   8 C8             0.0098    -0.7341    -1.1821 C.2     
   9 C9             0.4660    -3.5195    -0.1888 C.3     
  10 O10           -0.4343     0.0221     2.4072 O.2     
  11 O11            1.3343    -1.4416     1.4766 O.2     
  12 C12           -1.9612    -3.8437    -0.5867 C.2     
  13 S13           -3.2970    -4.2060     0.4110 S.3     
  14 C14           -3.8939    -5.3960    -0.7375 C.2     
  15 C15           -3.0460    -5.4483    -1.8086 C.2     
  16 C16           -1.9870    -4.5770    -1.7066 C.2     
  17 Cl17          -0.7659    -4.4470    -2.9336 Cl      
  18 C18           -5.1058    -6.2028    -0.5727 C.2     
  19 O19           -5.7906    -6.0754     0.4253 O.2     
  20 N20           -5.4622    -7.0860    -1.5264 N.am    
  21 C21           -6.5522    -7.9289    -1.3226 C.ar    
  22 N22           -7.1739    -7.9258    -0.1535 N.ar    
  23 C23           -8.2116    -8.7092     0.0806 C.ar    
  24 C24           -8.6871    -9.5662    -0.8967 C.ar    
  25 C25           -8.0617    -9.5978    -2.1346 C.ar    
  26 C26           -6.9804    -8.7610    -2.3504 C.ar    
  27 F27           -8.8155    -8.6736     1.2886 F       
  28 H28            1.0146     1.8315    -0.0004 H       
  29 H29           -0.5321     1.8153    -0.8813 H       
  30 H30           -0.5215     1.8109     0.8986 H       
  31 H31            0.8040    -0.9457    -2.9789 H       
  32 H32           -1.4696    -1.8482    -2.0514 H       
  33 H33           -2.2074    -1.7412     1.0772 H       
  34 H34           -1.1625    -2.9368     1.8879 H       
  35 H35            1.2339    -2.7849     0.0533 H       
  36 H36            0.4457    -4.2911     0.5808 H       
  37 H37            0.6898    -3.9745    -1.1537 H       
  38 H38           -3.1955    -6.1051    -2.6528 H       
  39 H39           -4.9597    -7.1346    -2.3546 H       
  40 H40           -9.5357   -10.2039    -0.6975 H       
  41 H41           -8.4133   -10.2576    -2.9139 H       
  42 H42           -6.4710    -8.7603    -3.3027 H       
@<TRIPOS>BOND
   1    1    7 1
   2    1   28 1
   3    1   29 1
   4    1   30 1
   5    2    8 2
   6    2   31 1
   7    3    4 1
   8    3    8 1
   9    3   32 1
  10    4    5 1
  11    4    9 1
  12    4   12 1
  13    5    6 1
  14    5   33 1
  15    5   34 1
  16    6    7 am
  17    6   10 2
  18    6   11 2
  19    7    8 1
  20    9   35 1
  21    9   36 1
  22    9   37 1
  23   12   13 1
  24   12   16 2
  25   13   14 1
  26   14   15 2
  27   14   18 1
  28   15   16 1
  29   15   38 1
  30   16   17 1
  31   18   19 2
  32   18   20 am
  33   20   21 1
  34   20   39 1
  35   21   22 ar
  36   21   26 ar
  37   22   23 ar
  38   23   24 ar
  39   23   27 1
  40   24   25 ar
  41   24   40 1
  42   25   26 ar
  43   25   41 1
  44   26   42 1

#	End of record

