#	Name: ASD01841034
#	Creating user name:	WinNT
#	Creation time:	15. 06. 2019 19:38

#	Modifying user name:	WinNT
#	Modification time:	15. 06. 2019 19:38

#	Program:	/corina/corina34_cracker 3.40 0067  02.08.2006

@<TRIPOS>MOLECULE
ASD01841034
  39   41    0    0    0
SMALL
NO_CHARGES


@<TRIPOS>ATOM
   1 C1            -0.0184     1.5028     0.0103 C.2     
   2 C2             0.0021    -0.0041     0.0020 C.3     
   3 O3             1.0235     2.1234     0.0037 O.2     
   4 N4            -1.1946     2.1607     0.0195 N.am    
   5 S5            -2.6702     4.5308     0.0393 S.3     
   6 C6            -1.2134     3.5468     0.0271 C.2     
   7 N7            -0.1667     4.2960     0.0266 N.2     
   8 C8            -0.3470     5.6321     0.0351 C.ar    
   9 C9            -1.6950     5.9985     0.0433 C.ar    
  10 C10           -2.0612     7.3435     0.0520 C.ar    
  11 C11           -1.0965     8.3260     0.0521 C.ar    
  12 C12            0.2464     7.9801     0.0436 C.ar    
  13 C13            0.6281     6.6574     0.0356 C.ar    
  14 C14           -3.5193     7.7239     0.0608 C.3     
  15 O15            1.9486     6.3346     0.0282 O.3     
  16 C16            2.8811     7.4174     0.0292 C.3     
  17 C17           -0.7243    -0.5187    -1.2435 C.3     
  18 O18           -0.6534    -1.9455    -1.2791 O.3     
  19 C19            0.6771    -2.4621    -1.3505 C.3     
  20 C20            1.4597    -2.0255    -0.1093 C.3     
  21 C21            1.4524    -0.4962    -0.0224 C.3     
  22 H22           -0.4961    -0.3800     0.8956 H       
  23 H23           -2.0280     1.6644     0.0207 H       
  24 H24           -1.3859     9.3665     0.0585 H       
  25 H25            0.9990     8.7547     0.0434 H       
  26 H26           -3.8661     7.8103     1.0906 H       
  27 H27           -3.6486     8.6794    -0.4475 H       
  28 H28           -4.0980     6.9571    -0.4543 H       
  29 H29            2.7249     8.0323    -0.8572 H       
  30 H30            2.7328     8.0238     0.9227 H       
  31 H31            3.8969     7.0222     0.0228 H       
  32 H32           -1.7683    -0.2073    -1.2101 H       
  33 H33           -0.2509    -0.1089    -2.1357 H       
  34 H34            0.6425    -3.5506    -1.3942 H       
  35 H35            1.1688    -2.0777    -2.2441 H       
  36 H36            0.9916    -2.4432     0.7821 H       
  37 H37            2.4874    -2.3813    -0.1829 H       
  38 H38            1.9644    -0.0793    -0.8897 H       
  39 H39            1.9601    -0.1803     0.8890 H       
@<TRIPOS>BOND
   1    1    2 1
   2    1    3 2
   3    1    4 am
   4    2   17 1
   5    2   21 1
   6    2   22 1
   7    4    6 1
   8    4   23 1
   9    5    6 1
  10    5    9 1
  11    6    7 2
  12    7    8 1
  13    8    9 ar
  14    8   13 ar
  15    9   10 ar
  16   10   11 ar
  17   10   14 1
  18   11   12 ar
  19   11   24 1
  20   12   13 ar
  21   12   25 1
  22   13   15 1
  23   14   26 1
  24   14   27 1
  25   14   28 1
  26   15   16 1
  27   16   29 1
  28   16   30 1
  29   16   31 1
  30   17   18 1
  31   17   32 1
  32   17   33 1
  33   18   19 1
  34   19   20 1
  35   19   34 1
  36   19   35 1
  37   20   21 1
  38   20   36 1
  39   20   37 1
  40   21   38 1
  41   21   39 1

#	End of record

