#	Name: ASD03092278
#	Creating user name:	WinNT
#	Creation time:	15. 06. 2019 20:32

#	Modifying user name:	WinNT
#	Modification time:	15. 06. 2019 20:32

#	Program:	/corina/corina34_cracker 3.40 0067  02.08.2006

@<TRIPOS>MOLECULE
ASD03092278
  52   54    0    0    0
SMALL
NO_CHARGES


@<TRIPOS>ATOM
   1 C1            -0.0207     1.5967    -0.5218 C.3     
   2 N2            -0.0219     0.1317    -0.5271 N.am    
   3 C3             1.2293    -0.6011    -0.7359 C.3     
   4 C4            -1.1741    -0.5419    -0.3398 C.2     
   5 O5            -2.2100     0.0648    -0.1669 O.2     
   6 C6            -1.1754    -2.0489    -0.3452 C.3     
   7 C7            -2.5992    -2.5585    -0.1126 C.3     
   8 N8            -2.6124    -4.0216    -0.1870 N.pl3   
   9 N9            -2.7255    -4.7870    -1.3545 N.2     
  10 C10           -2.6990    -6.0574    -1.0234 C.2     
  11 N11           -2.7861    -7.1366    -1.9111 N.pl3   
  12 C12           -3.0252    -6.9070    -3.2698 C.ar    
  13 C13           -3.0245    -5.6107    -3.7670 C.ar    
  14 C14           -3.2611    -5.3863    -5.1098 C.ar    
  15 C15           -3.4990    -6.4503    -5.9596 C.ar    
  16 C16           -3.5009    -7.7449    -5.4692 C.ar    
  17 Cl17          -3.8002    -9.0779    -6.5403 Cl      
  18 C18           -3.2587    -7.9772    -4.1271 C.ar    
  19 F19           -3.2544    -9.2408    -3.6490 F       
  20 C20           -2.5679    -6.1500     0.3679 C.2     
  21 C21           -2.5108    -4.8800     0.8673 C.2     
  22 C22           -2.3678    -4.5048     2.2910 C.ar    
  23 C23           -2.7020    -5.4051     3.3091 C.ar    
  24 C24           -2.5528    -5.0140     4.6232 C.ar    
  25 C25           -2.9090    -5.9735     5.7293 C.3     
  26 N26           -2.1019    -3.8112     4.9251 N.ar    
  27 C27           -1.7755    -2.9323     3.9966 C.ar    
  28 C28           -1.2657    -1.5743     4.4050 C.3     
  29 C29           -1.8890    -3.2418     2.6573 C.ar    
  30 H30            0.9936     1.9598    -0.6875 H       
  31 H31           -0.6720     1.9634    -1.3152 H       
  32 H32           -0.3827     1.9569     0.4411 H       
  33 H33            1.7067    -0.7866     0.2263 H       
  34 H34            1.0164    -1.5516    -1.2251 H       
  35 H35            1.8959    -0.0103    -1.3642 H       
  36 H36           -0.8133    -2.4091    -1.3081 H       
  37 H37           -0.5241    -2.4156     0.4482 H       
  38 H38           -2.9421    -2.2417     0.8724 H       
  39 H39           -3.2607    -2.1498    -0.8764 H       
  40 H40           -2.6807    -8.0436    -1.5837 H       
  41 H41           -2.8395    -4.7781    -3.1045 H       
  42 H42           -3.2604    -4.3777    -5.4960 H       
  43 H43           -3.6842    -6.2711    -7.0084 H       
  44 H44           -2.5172    -7.0628     0.9429 H       
  45 H45           -3.0716    -6.3912     3.0692 H       
  46 H46           -2.0323    -6.5647     5.9938 H       
  47 H47           -3.2462    -5.4135     6.6015 H       
  48 H48           -3.7061    -6.6363     5.3926 H       
  49 H49           -0.1804    -1.6072     4.5007 H       
  50 H50           -1.5416    -0.8399     3.6481 H       
  51 H51           -1.7064    -1.2933     5.3615 H       
  52 H52           -1.6159    -2.5191     1.9027 H       
@<TRIPOS>BOND
   1    1    2 1
   2    1   30 1
   3    1   31 1
   4    1   32 1
   5    2    3 1
   6    2    4 am
   7    3   33 1
   8    3   34 1
   9    3   35 1
  10    4    5 2
  11    4    6 1
  12    6    7 1
  13    6   36 1
  14    6   37 1
  15    7    8 1
  16    7   38 1
  17    7   39 1
  18    8   21 1
  19    8    9 1
  20    9   10 2
  21   10   11 1
  22   10   20 1
  23   11   12 1
  24   11   40 1
  25   12   18 ar
  26   12   13 ar
  27   13   14 ar
  28   13   41 1
  29   14   15 ar
  30   14   42 1
  31   15   16 ar
  32   15   43 1
  33   16   17 1
  34   16   18 ar
  35   18   19 1
  36   20   21 2
  37   20   44 1
  38   21   22 1
  39   22   29 ar
  40   22   23 ar
  41   23   24 ar
  42   23   45 1
  43   24   25 1
  44   24   26 ar
  45   25   46 1
  46   25   47 1
  47   25   48 1
  48   26   27 ar
  49   27   28 1
  50   27   29 ar
  51   28   49 1
  52   28   50 1
  53   28   51 1
  54   29   52 1

#	End of record

