#	Name: ASD03330928
#	Creating user name:	WinNT
#	Creation time:	15. 06. 2019 20:38

#	Modifying user name:	WinNT
#	Modification time:	15. 06. 2019 20:38

#	Program:	/corina/corina34_cracker 3.40 0067  02.08.2006

@<TRIPOS>MOLECULE
ASD03330928
  68   71    0    0    0
SMALL
NO_CHARGES


@<TRIPOS>ATOM
   1 N1            -0.0164     1.3554     0.0653 N.pl3   
   2 C2             0.0029    -0.0038     0.0363 C.2     
   3 C3             1.2395    -0.8639     0.0226 C.3     
   4 N4             2.1701    -0.3869     1.0575 N.3     
   5 C5             3.0625     0.6480     0.5319 C.3     
   6 C6             2.3511     1.5031    -0.5128 C.3     
   7 C7             1.1625     2.2238     0.1291 C.3     
   8 C8            -1.3235     1.7462     0.0361 C.2     
   9 N9            -2.0806     0.6745     0.0088 N.2     
  10 C10           -1.2924    -0.4229     0.0109 C.2     
  11 C11           -1.7523    -1.8227    -0.0109 C.2     
  12 O12           -0.9416    -2.7292    -0.0069 O.2     
  13 N13           -3.0714    -2.0983    -0.0352 N.am    
  14 C14            2.9365    -1.5015     1.6305 C.3     
  15 C15           -4.9395    -3.5724     0.5290 C.3     
  16 C16           -3.5286    -3.4900    -0.0569 C.3     
  17 C17           -3.5448    -3.9991    -1.4996 C.3     
  18 C18           -2.1338    -3.9166    -2.0855 C.3     
  19 N19           -4.9485    -2.9738     1.8704 N.3     
  20 C20           -6.3268    -2.8183     2.3705 C.3     
  21 C21           -6.4141    -3.5742     3.7130 C.3     
  22 C22           -4.9347    -3.6357     4.1762 C.3     
  23 C23           -4.1916    -3.8080     2.8280 C.3     
  24 C24           -4.0223    -5.4525    -1.5222 C.3     
  25 C25           -4.4946    -3.1372    -2.3339 C.3     
  26 C26           -1.8064     3.1442     0.0359 C.ar    
  27 C27           -2.7906     3.5466    -0.8709 C.ar    
  28 C28           -3.2374     4.8545    -0.8650 C.ar    
  29 C29           -2.7125     5.7633     0.0355 C.ar    
  30 C30           -1.7368     5.3704     0.9360 C.ar    
  31 C31           -1.2856     4.0653     0.9447 C.ar    
  32 F32           -3.3037     2.6596    -1.7513 F       
  33 Cl33          -1.0839     6.5197     2.0613 Cl      
  34 H34            0.9658    -1.8988     0.2277 H       
  35 H35            1.7175    -0.7992    -0.9549 H       
  36 H36            3.3934     1.2857     1.3517 H       
  37 H37            3.9312     0.1737     0.0753 H       
  38 H38            3.0477     2.2393    -0.9139 H       
  39 H39            1.9944     0.8651    -1.3214 H       
  40 H40            0.9629     3.1495    -0.4106 H       
  41 H41            1.3926     2.4500     1.1702 H       
  42 H42           -3.7180    -1.3753    -0.0384 H       
  43 H43            3.4549    -2.0339     0.8330 H       
  44 H44            3.6655    -1.1135     2.3419 H       
  45 H45            2.2578    -2.1843     2.1416 H       
  46 H46           -5.6326    -3.0312    -0.1151 H       
  47 H47           -5.2451    -4.6167     0.5951 H       
  48 H48           -2.8519    -4.1040     0.5375 H       
  49 H49           -1.4572    -4.5306    -1.4911 H       
  50 H50           -2.1454    -4.2793    -3.1133 H       
  51 H51           -1.7937    -2.8812    -2.0693 H       
  52 H52           -6.5485    -1.7623     2.5244 H       
  53 H53           -7.0307    -3.2471     1.6571 H       
  54 H54           -7.0194    -3.0188     4.4294 H       
  55 H55           -6.8137    -4.5775     3.5652 H       
  56 H56           -4.6408    -2.7087     4.6684 H       
  57 H57           -4.7650    -4.4928     4.8279 H       
  58 H58           -4.2076    -4.8524     2.5166 H       
  59 H59           -3.1648    -3.4520     2.9125 H       
  60 H60           -5.0275    -5.5112    -1.1048 H       
  61 H61           -4.0339    -5.8152    -2.5500 H       
  62 H62           -3.3457    -6.0665    -0.9279 H       
  63 H63           -4.1544    -2.1018    -2.3177 H       
  64 H64           -4.5062    -3.4999    -3.3617 H       
  65 H65           -5.4998    -3.1959    -1.9165 H       
  66 H66           -3.9977     5.1675    -1.5653 H       
  67 H67           -3.0649     6.7842     0.0362 H       
  68 H68           -0.5280     3.7594     1.6510 H       
@<TRIPOS>BOND
   1    1    2 1
   2    1    7 1
   3    1    8 1
   4    2    3 1
   5    2   10 2
   6    3    4 1
   7    3   34 1
   8    3   35 1
   9    4    5 1
  10    4   14 1
  11    5    6 1
  12    5   36 1
  13    5   37 1
  14    6    7 1
  15    6   38 1
  16    6   39 1
  17    7   40 1
  18    7   41 1
  19    8    9 2
  20    8   26 1
  21    9   10 1
  22   10   11 1
  23   11   12 2
  24   11   13 am
  25   13   16 1
  26   13   42 1
  27   14   43 1
  28   14   44 1
  29   14   45 1
  30   15   16 1
  31   15   19 1
  32   15   46 1
  33   15   47 1
  34   16   17 1
  35   16   48 1
  36   17   18 1
  37   17   24 1
  38   17   25 1
  39   18   49 1
  40   18   50 1
  41   18   51 1
  42   19   20 1
  43   19   23 1
  44   20   21 1
  45   20   52 1
  46   20   53 1
  47   21   22 1
  48   21   54 1
  49   21   55 1
  50   22   23 1
  51   22   56 1
  52   22   57 1
  53   23   58 1
  54   23   59 1
  55   24   60 1
  56   24   61 1
  57   24   62 1
  58   25   63 1
  59   25   64 1
  60   25   65 1
  61   26   27 ar
  62   26   31 ar
  63   27   28 ar
  64   27   32 1
  65   28   29 ar
  66   28   66 1
  67   29   30 ar
  68   29   67 1
  69   30   31 ar
  70   30   33 1
  71   31   68 1

#	End of record

