#	Name: ASD02508147
#	Creating user name:	WinNT
#	Creation time:	15. 06. 2019 20:23

#	Modifying user name:	WinNT
#	Modification time:	15. 06. 2019 20:23

#	Program:	/corina/corina34_cracker 3.40 0067  02.08.2006

@<TRIPOS>MOLECULE
ASD02508147
  36   38    0    0    0
SMALL
NO_CHARGES


@<TRIPOS>ATOM
   1 C1             0.0886     1.3714     0.3808 C.ar    
   2 C2             0.1102    -0.0094     0.4997 C.ar    
   3 C3             1.2722     2.0704     0.1453 C.ar    
   4 C4             2.4680     1.3786     0.0315 C.ar    
   5 C5             2.4819     0.0026     0.1516 C.ar    
   6 C6             1.3065    -0.6902     0.3844 C.ar    
   7 N7            -0.9303     2.3218     0.4405 N.am    
   8 C8            -0.3670     3.5319     0.2536 C.2     
   9 O9             0.9554     3.3865     0.0750 O.3     
  10 S10            4.0030    -0.8748     0.0066 S.o2    
  11 N11            3.8848    -1.8428    -1.3318 N.am    
  12 C12            3.8094    -1.2698    -2.6041 C.ar    
  13 O13           -0.9647     4.5908     0.2439 O.2     
  14 C14           -2.3530     2.0538     0.6649 C.3     
  15 O15            4.9994     0.0950    -0.2864 O.2     
  16 O16            4.0720    -1.7461     1.1271 O.2     
  17 C17            4.5878    -1.7702    -3.6399 C.ar    
  18 C18            2.9516    -0.2024    -2.8367 C.ar    
  19 C19            2.8791     0.3621    -4.0951 C.ar    
  20 C20            3.6601    -0.1349    -5.1237 C.ar    
  21 C21            4.5113    -1.2019    -4.8963 C.ar    
  22 C22            1.3323    -2.1914     0.5142 C.3     
  23 Cl23           3.5664     0.5770    -6.7043 Cl      
  24 H24           -0.8058    -0.5515     0.6824 H       
  25 H25            3.3875     1.9147    -0.1511 H       
  26 H26            3.8680    -2.8076    -1.2326 H       
  27 H27           -2.5629     2.0769     1.7342 H       
  28 H28           -2.9498     2.8141     0.1610 H       
  29 H29           -2.6049     1.0710     0.2664 H       
  30 H30            5.2526    -2.6028    -3.4628 H       
  31 H31            2.3417     0.1856    -2.0343 H       
  32 H32            2.2121     1.1918    -4.2766 H       
  33 H33            5.1197    -1.5878    -5.7009 H       
  34 H34            1.5828    -2.4632     1.5396 H       
  35 H35            0.3521    -2.5949     0.2604 H       
  36 H36            2.0808    -2.6019    -0.1637 H       
@<TRIPOS>BOND
   1    1    2 ar
   2    1    3 ar
   3    1    7 1
   4    2    6 ar
   5    2   24 1
   6    3    4 ar
   7    3    9 1
   8    4    5 ar
   9    4   25 1
  10    5    6 ar
  11    5   10 1
  12    6   22 1
  13    7    8 am
  14    7   14 1
  15    8    9 1
  16    8   13 2
  17   10   11 am
  18   10   15 2
  19   10   16 2
  20   11   12 1
  21   11   26 1
  22   12   17 ar
  23   12   18 ar
  24   14   27 1
  25   14   28 1
  26   14   29 1
  27   17   21 ar
  28   17   30 1
  29   18   19 ar
  30   18   31 1
  31   19   20 ar
  32   19   32 1
  33   20   21 ar
  34   20   23 1
  35   21   33 1
  36   22   34 1
  37   22   35 1
  38   22   36 1

#	End of record

