#	Name: ASD00330001
#	Creating user name:	WinNT
#	Creation time:	15. 06. 2019 18:35

#	Modifying user name:	WinNT
#	Modification time:	15. 06. 2019 18:35

#	Program:	/corina/corina34_cracker 3.40 0067  02.08.2006

@<TRIPOS>MOLECULE
ASD00330001
  32   34    0    0    0
SMALL
NO_CHARGES


@<TRIPOS>ATOM
   1 N1            -0.0158     1.3122     0.0093 N.ar    
   2 C2             0.0021    -0.0041     0.0020 C.ar    
   3 N3             1.1256    -0.6976    -0.0120 N.ar    
   4 C4             2.3085    -0.0917    -0.0200 C.ar    
   5 C5             1.1182     2.0050     0.0021 C.ar    
   6 N6             1.4386     3.3391     0.0058 N.pl3   
   7 C7             2.3412     1.3130    -0.0132 C.ar    
   8 N8             3.3261     2.2432    -0.0185 N.2     
   9 C9             2.7985     3.4328    -0.0069 C.2     
  10 C10            0.4928     4.4577     0.0207 C.3     
  11 C11            0.0579     4.7855     1.4718 C.3     
  12 C12           -0.3605     6.2716     1.3572 C.3     
  13 C13            0.3552     6.7684     0.0861 C.3     
  14 O14            1.1354     5.6728    -0.4209 O.3     
  15 C15            1.2716     7.9441     0.4309 C.3     
  16 O16           -1.7775     6.3823     1.2091 O.3     
  17 O17           -1.0490     3.9732     1.8682 O.3     
  18 N18            3.4807    -0.8271    -0.0343 N.pl3   
  19 O19            1.8408     8.4722    -0.7688 O.3     
  20 H20           -0.9375    -0.5367     0.0081 H       
  21 H21            3.3559     4.3578    -0.0083 H       
  22 H22           -0.3755     4.2329    -0.5987 H       
  23 H23            0.8920     4.6685     2.1637 H       
  24 H24           -0.0222     6.8315     2.2290 H       
  25 H25           -0.3804     7.0750    -0.6576 H       
  26 H26            0.6933     8.7209     0.9312 H       
  27 H27            2.0685     7.6021     1.0912 H       
  28 H28           -2.0950     7.2925     1.1327 H       
  29 H29           -1.3576     4.1415     2.7691 H       
  30 H30            3.4451    -1.7965    -0.0385 H       
  31 H31            4.3380    -0.3733    -0.0400 H       
  32 H32            2.4342     9.2221    -0.6257 H       
@<TRIPOS>BOND
   1    1    2 ar
   2    1    5 ar
   3    2    3 ar
   4    2   20 1
   5    3    4 ar
   6    4    7 ar
   7    4   18 1
   8    5    7 ar
   9    5    6 1
  10    6    9 1
  11    6   10 1
  12    7    8 1
  13    8    9 2
  14    9   21 1
  15   10   11 1
  16   10   14 1
  17   10   22 1
  18   11   12 1
  19   11   17 1
  20   11   23 1
  21   12   13 1
  22   12   16 1
  23   12   24 1
  24   13   14 1
  25   13   15 1
  26   13   25 1
  27   15   19 1
  28   15   26 1
  29   15   27 1
  30   16   28 1
  31   17   29 1
  32   18   30 1
  33   18   31 1
  34   19   32 1

#	End of record

