#	Name: ASD01180120
#	Creating user name:	WinNT
#	Creation time:	15. 06. 2019 19:06

#	Modifying user name:	WinNT
#	Modification time:	15. 06. 2019 19:06

#	Program:	/corina/corina34_cracker 3.40 0067  02.08.2006

@<TRIPOS>MOLECULE
ASD01180120
  20   21    0    0    0
SMALL
NO_CHARGES


@<TRIPOS>ATOM
   1 N1            -0.0157     1.3077     0.0092 N.ar    
   2 C2             0.0021    -0.0041     0.0020 C.ar    
   3 C3             1.1987    -0.7212    -0.0132 C.ar    
   4 C4             2.3910    -0.0566    -0.0210 C.ar    
   5 C5             2.3674     1.3514    -0.0132 C.ar    
   6 C6             3.5537     2.1019    -0.0209 C.ar    
   7 C7             3.4895     3.4623    -0.0135 C.ar    
   8 C8             2.2615     4.1197     0.0017 C.ar    
   9 C9             1.0921     3.4231     0.0099 C.ar    
  10 C10            1.1172     2.0180     0.0022 C.ar    
  11 C11            2.2272     5.6263     0.0095 C.3     
  12 F12            3.5351     6.1226    -0.0007 F       
  13 F13            1.5462     6.0831    -1.1240 F       
  14 F14            1.5683     6.0718     1.1604 F       
  15 Cl15          -1.5025    -0.8700     0.0123 Cl      
  16 H16            1.1817    -1.8011    -0.0185 H       
  17 H17            3.3267    -0.5958    -0.0325 H       
  18 H18            4.5117     1.6035    -0.0323 H       
  19 H19            4.4027     4.0389    -0.0191 H       
  20 H20            0.1484     3.9483     0.0224 H       
@<TRIPOS>BOND
   1    1    2 ar
   2    1   10 ar
   3    2    3 ar
   4    2   15 1
   5    3    4 ar
   6    3   16 1
   7    4    5 ar
   8    4   17 1
   9    5    6 ar
  10    5   10 ar
  11    6    7 ar
  12    6   18 1
  13    7    8 ar
  14    7   19 1
  15    8    9 ar
  16    8   11 1
  17    9   10 ar
  18    9   20 1
  19   11   12 1
  20   11   13 1
  21   11   14 1

#	End of record

