#	Name: ASD01840159
#	Creating user name:	WinNT
#	Creation time:	15. 06. 2019 19:37

#	Modifying user name:	WinNT
#	Modification time:	15. 06. 2019 19:37

#	Program:	/corina/corina34_cracker 3.40 0067  02.08.2006

@<TRIPOS>MOLECULE
ASD01840159
  47   50    0    0    0
SMALL
NO_CHARGES


@<TRIPOS>ATOM
   1 C1            -1.5157     1.7372    -0.4003 C.3     
   2 C2            -1.2518     0.2306    -0.2259 C.3     
   3 N3            -0.9069    -0.4561    -1.4732 N.am    
   4 C4            -1.1374    -1.7779    -1.6007 C.2     
   5 C5            -0.7931    -2.4632    -2.8456 C.2     
   6 O6            -1.6321    -2.4013    -0.6793 O.2     
   7 C7            -0.9853    -3.7865    -3.0713 C.2     
   8 C8            -0.5618    -4.2293    -4.3868 C.ar    
   9 C9            -0.0366    -3.1831    -5.1572 C.ar    
  10 S10           -0.0848    -1.6810    -4.2451 S.3     
  11 C11           -0.6038    -5.5142    -4.9746 C.ar    
  12 C12           -0.1283    -5.6542    -6.2599 C.ar    
  13 N13            0.3498    -4.6073    -6.9103 N.ar    
  14 N14            0.3950    -3.4357    -6.3950 N.ar    
  15 C15           -0.1528    -7.0055    -6.9266 C.3     
  16 C16           -1.1521    -6.6961    -4.2172 C.3     
  17 N17           -1.5380    -4.6418    -2.1277 N.pl3   
  18 C18           -0.0288     0.6437     0.6129 C.3     
  19 N19           -0.0765     1.9186    -0.1290 N.am    
  20 C20            0.8303     2.8674    -0.4356 C.2     
  21 O21            1.9822     2.7486    -0.0675 O.2     
  22 O22            0.4596     3.9472    -1.1501 O.3     
  23 C23            1.3960     4.9147    -1.3369 C.ar    
  24 C24            2.4005     4.7371    -2.2771 C.ar    
  25 C25            1.3454     6.0838    -0.5918 C.ar    
  26 C26            2.2983     7.0655    -0.7835 C.ar    
  27 C27            3.3017     6.8836    -1.7172 C.ar    
  28 C28            3.3510     5.7218    -2.4651 C.ar    
  29 H29           -1.8109     2.0173    -1.4114 H       
  30 H30           -2.1642     2.1613     0.3664 H       
  31 H31           -2.0230    -0.2869     0.3449 H       
  32 H32           -0.5128     0.0405    -2.2072 H       
  33 H33           -1.0971    -7.1323    -7.4561 H       
  34 H34            0.6730    -7.0765    -7.6344 H       
  35 H35           -0.0522    -7.7851    -6.1715 H       
  36 H36           -2.2367    -6.7232    -4.3218 H       
  37 H37           -0.7252    -7.6149    -4.6192 H       
  38 H38           -0.8909    -6.6049    -3.1629 H       
  39 H39           -1.5556    -4.3856    -1.1923 H       
  40 H40           -1.9066    -5.4955    -2.4037 H       
  41 H41           -0.2404     0.7465     1.6772 H       
  42 H42            0.8632     0.0507     0.4106 H       
  43 H43            2.4396     3.8296    -2.8614 H       
  44 H44            0.5616     6.2264     0.1374 H       
  45 H45            2.2591     7.9759    -0.2039 H       
  46 H46            4.0455     7.6524    -1.8659 H       
  47 H47            4.1334     5.5838    -3.1967 H       
@<TRIPOS>BOND
   1    1    2 1
   2    1   19 1
   3    1   29 1
   4    1   30 1
   5    2    3 1
   6    2   18 1
   7    2   31 1
   8    3    4 am
   9    3   32 1
  10    4    5 1
  11    4    6 2
  12    5    7 2
  13    5   10 1
  14    7    8 1
  15    7   17 1
  16    8    9 ar
  17    8   11 ar
  18    9   10 1
  19    9   14 ar
  20   11   12 ar
  21   11   16 1
  22   12   13 ar
  23   12   15 1
  24   13   14 ar
  25   15   33 1
  26   15   34 1
  27   15   35 1
  28   16   36 1
  29   16   37 1
  30   16   38 1
  31   17   39 1
  32   17   40 1
  33   18   19 1
  34   18   41 1
  35   18   42 1
  36   19   20 am
  37   20   21 2
  38   20   22 1
  39   22   23 1
  40   23   25 ar
  41   23   24 ar
  42   24   28 ar
  43   24   43 1
  44   25   26 ar
  45   25   44 1
  46   26   27 ar
  47   26   45 1
  48   27   28 ar
  49   27   46 1
  50   28   47 1

#	End of record

