#	Name: ASD01914088
#	Creating user name:	WinNT
#	Creation time:	15. 06. 2019 20:02

#	Modifying user name:	WinNT
#	Modification time:	15. 06. 2019 20:02

#	Program:	/corina/corina34_cracker 3.40 0067  02.08.2006

@<TRIPOS>MOLECULE
ASD01914088
  49   51    0    0    0
SMALL
NO_CHARGES


@<TRIPOS>ATOM
   1 C1            -0.0167     1.3810     0.0096 C.ar    
   2 C2             0.0021    -0.0041     0.0020 C.ar    
   3 C3             2.4001     0.0319    -0.0208 C.ar    
   4 C4             2.3774     1.4190    -0.0135 C.ar    
   5 O5             3.5874    -0.6291    -0.0366 O.3     
   6 C6             1.2093    -0.6795    -0.0132 C.ar    
   7 C7             1.1696     2.0900     0.0021 C.ar    
   8 F8            -1.1586    -0.6954     0.0099 F       
   9 C9             3.5349    -2.0571    -0.0433 C.3     
  10 C10            4.9362    -2.6112    -0.0608 C.ar    
  11 N11            5.1172    -3.9180    -0.0693 N.ar    
  12 C12            6.3202    -4.4535    -0.0847 C.ar    
  13 C13            7.4569    -3.6445    -0.0921 C.ar    
  14 C14            7.2971    -2.2534    -0.0834 C.ar    
  15 C15            6.0119    -1.7411    -0.0734 C.ar    
  16 C16            8.8074    -4.2458    -0.1084 C.2     
  17 N17            8.9482    -5.5862    -0.1162 N.am    
  18 O18            9.7908    -3.5314    -0.1147 O.2     
  19 C19           10.2864    -6.1821    -0.1323 C.3     
  20 C20           10.2265    -7.5867     0.4712 C.3     
  21 C21           10.7892    -6.2678    -1.5748 C.3     
  22 C22           11.6253    -8.2109     0.4549 C.3     
  23 C23           11.5676    -9.5840     1.1315 C.3     
  24 C24           11.0203    -9.4216     2.5520 C.3     
  25 O25            9.7310    -8.8076     2.4971 O.3     
  26 C26            9.7310    -7.5015     1.9172 C.3     
  27 H27           -0.9596     1.9075     0.0170 H       
  28 H28            3.3037     1.9743    -0.0197 H       
  29 H29            1.2246    -1.7594    -0.0188 H       
  30 H30            1.1526     3.1698     0.0078 H       
  31 H31            3.0175    -2.4058     0.8504 H       
  32 H32            2.9987    -2.3968    -0.9294 H       
  33 H33            6.4279    -5.5281    -0.0913 H       
  34 H34            8.1549    -1.5972    -0.0887 H       
  35 H35            5.8501    -0.6733    -0.0665 H       
  36 H36            8.1634    -6.1563    -0.1111 H       
  37 H37           10.9666    -5.5636     0.4534 H       
  38 H38            9.5448    -8.2052    -0.1126 H       
  39 H39           10.8318    -5.2671    -2.0048 H       
  40 H40           11.7849    -6.7111    -1.5868 H       
  41 H41           10.1090    -6.8862    -2.1605 H       
  42 H42           11.9612    -8.3260    -0.5756 H       
  43 H43           12.3184    -7.5667     0.9959 H       
  44 H44           10.9127   -10.2434     0.5620 H       
  45 H45           12.5693   -10.0116     1.1737 H       
  46 H46           10.9368   -10.4008     3.0235 H       
  47 H47           11.6969    -8.7949     3.1329 H       
  48 H48           10.3908    -6.8496     2.4898 H       
  49 H49            8.7188    -7.0975     1.9314 H       
@<TRIPOS>BOND
   1    1    2 ar
   2    1    7 ar
   3    1   27 1
   4    2    6 ar
   5    2    8 1
   6    3    4 ar
   7    3    5 1
   8    3    6 ar
   9    4    7 ar
  10    4   28 1
  11    5    9 1
  12    6   29 1
  13    7   30 1
  14    9   10 1
  15    9   31 1
  16    9   32 1
  17   10   11 ar
  18   10   15 ar
  19   11   12 ar
  20   12   13 ar
  21   12   33 1
  22   13   14 ar
  23   13   16 1
  24   14   15 ar
  25   14   34 1
  26   15   35 1
  27   16   17 am
  28   16   18 2
  29   17   19 1
  30   17   36 1
  31   19   20 1
  32   19   21 1
  33   19   37 1
  34   20   22 1
  35   20   26 1
  36   20   38 1
  37   21   39 1
  38   21   40 1
  39   21   41 1
  40   22   23 1
  41   22   42 1
  42   22   43 1
  43   23   24 1
  44   23   44 1
  45   23   45 1
  46   24   25 1
  47   24   46 1
  48   24   47 1
  49   25   26 1
  50   26   48 1
  51   26   49 1

#	End of record

