#	Name: ASD00069225
#	Creating user name:	WinNT
#	Creation time:	15. 06. 2019 18:29

#	Modifying user name:	WinNT
#	Modification time:	15. 06. 2019 18:29

#	Program:	/corina/corina34_cracker 3.40 0067  02.08.2006

@<TRIPOS>MOLECULE
ASD00069225
  76   80    0    0    0
SMALL
NO_CHARGES


@<TRIPOS>ATOM
   1 C1            -0.0162     1.3058     0.0437 C.2     
   2 N2            -0.0002    -0.0077     0.0318 N.2     
   3 C3             1.2712    -0.4298     0.0344 C.2     
   4 C4             2.0845     0.6819     0.0487 C.2     
   5 N5             1.2729     1.7619     0.0545 N.pl3   
   6 C6            -1.2254     2.1497     0.0398 C.2     
   7 O7            -1.1214     3.3614     0.0515 O.2     
   8 N8            -2.4459     1.5783     0.0232 N.am    
   9 C9            -3.5930     2.3733     0.1389 C.ar    
  10 C10           -4.7618     2.0158    -0.5320 C.ar    
  11 C11           -5.8955     2.8086    -0.4129 C.ar    
  12 C12           -5.8620     3.9497     0.3700 C.ar    
  13 C13           -4.7021     4.3027     1.0347 C.ar    
  14 C14           -3.5709     3.5156     0.9258 C.ar    
  15 F15           -7.0304     2.4669    -1.0613 F       
  16 N16           -4.7921     0.8608    -1.3239 N.3     
  17 C17           -5.8047    -0.0847    -0.8369 C.3     
  18 C18           -5.7106    -1.3891    -1.6317 C.3     
  19 C19           -5.9342    -1.0932    -3.1173 C.3     
  20 C20           -4.8971    -0.0696    -3.5875 C.3     
  21 C21           -5.0147     1.1966    -2.7360 C.3     
  22 C22           -5.7812    -2.3839    -3.9244 C.3     
  23 N23           -6.1128    -2.1236    -5.3316 N.3     
  24 C24            3.4330    -3.3946     0.0199 C.ar    
  25 N25            3.0230    -2.1361     0.0285 N.ar    
  26 C26            1.7224    -1.8418     0.0242 C.ar    
  27 C27            0.7934    -2.8804     0.0103 C.ar    
  28 C28            1.2656    -4.1913     0.0016 C.ar    
  29 N29            2.5784    -4.4067     0.0067 N.ar    
  30 N30            4.7913    -3.6603     0.0189 N.pl3   
  31 C31            5.7537    -2.5558     0.0274 C.3     
  32 N32            0.3794    -5.2568    -0.0118 N.3     
  33 C33            1.0969    -6.5380    -0.0191 C.3     
  34 C34            0.0956    -7.6840    -0.1804 C.3     
  35 C35           -0.9072    -7.6458     0.9761 C.3     
  36 C36           -1.6060    -6.2835     0.9906 C.3     
  37 C37           -0.5553    -5.1781     1.1181 C.3     
  38 C38           -1.9473    -8.7520     0.7878 C.3     
  39 N39           -2.8367    -8.7919     1.9562 N.3     
  40 H40            3.1645     0.6888     0.0546 H       
  41 H41            1.5531     2.6905     0.0641 H       
  42 H42           -2.5298     0.6163    -0.0689 H       
  43 H43           -6.7442     4.5659     0.4618 H       
  44 H44           -4.6809     5.1941     1.6441 H       
  45 H45           -2.6684     3.7922     1.4504 H       
  46 H46           -5.6318    -0.2898     0.2196 H       
  47 H47           -6.7969     0.3479    -0.9650 H       
  48 H48           -4.7232    -1.8294    -1.4929 H       
  49 H49           -6.4726    -2.0849    -1.2805 H       
  50 H50           -6.9362    -0.6890    -3.2614 H       
  51 H51           -3.8969    -0.4891    -3.4795 H       
  52 H52           -5.0778     0.1773    -4.6336 H       
  53 H53           -6.0107     1.6232    -2.8552 H       
  54 H54           -4.2680     1.9221    -3.0589 H       
  55 H55           -4.7526    -2.7373    -3.8529 H       
  56 H56           -6.4547    -3.1431    -3.5268 H       
  57 H57           -6.0193    -2.9614    -5.8861 H       
  58 H58           -7.0395    -1.7340    -5.4187 H       
  59 H59           -0.2668    -2.6743     0.0068 H       
  60 H60            5.1060    -4.5778     0.0127 H       
  61 H61            6.7672    -2.9570     0.0253 H       
  62 H62            5.6056    -1.9380    -0.8583 H       
  63 H63            5.6043    -1.9506     0.9216 H       
  64 H64            1.8037    -6.5538    -0.8487 H       
  65 H65            1.6369    -6.6572     0.9202 H       
  66 H66           -0.4352    -7.5731    -1.1260 H       
  67 H67            0.6269    -8.6357    -0.1701 H       
  68 H68           -0.3815    -7.7956     1.9191 H       
  69 H69           -2.1634    -6.1505     0.0635 H       
  70 H70           -2.2903    -6.2345     1.8376 H       
  71 H71           -0.0075    -5.3036     2.0520 H       
  72 H72           -1.0485    -4.2060     1.1143 H       
  73 H73           -2.5338    -8.5504    -0.1086 H       
  74 H74           -1.4418    -9.7120     0.6829 H       
  75 H75           -3.5333    -9.5150     1.8559 H       
  76 H76           -2.3096    -8.9132     2.8079 H       
@<TRIPOS>BOND
   1    1    2 2
   2    1    5 1
   3    1    6 1
   4    2    3 1
   5    3    4 2
   6    3   26 1
   7    4    5 1
   8    4   40 1
   9    5   41 1
  10    6    7 2
  11    6    8 am
  12    8    9 1
  13    8   42 1
  14    9   10 ar
  15    9   14 ar
  16   10   11 ar
  17   10   16 1
  18   11   12 ar
  19   11   15 1
  20   12   13 ar
  21   12   43 1
  22   13   14 ar
  23   13   44 1
  24   14   45 1
  25   16   17 1
  26   16   21 1
  27   17   18 1
  28   17   46 1
  29   17   47 1
  30   18   19 1
  31   18   48 1
  32   18   49 1
  33   19   20 1
  34   19   22 1
  35   19   50 1
  36   20   21 1
  37   20   51 1
  38   20   52 1
  39   21   53 1
  40   21   54 1
  41   22   23 1
  42   22   55 1
  43   22   56 1
  44   23   57 1
  45   23   58 1
  46   24   25 ar
  47   24   29 ar
  48   24   30 1
  49   25   26 ar
  50   26   27 ar
  51   27   28 ar
  52   27   59 1
  53   28   29 ar
  54   28   32 1
  55   30   31 1
  56   30   60 1
  57   31   61 1
  58   31   62 1
  59   31   63 1
  60   32   33 1
  61   32   37 1
  62   33   34 1
  63   33   64 1
  64   33   65 1
  65   34   35 1
  66   34   66 1
  67   34   67 1
  68   35   36 1
  69   35   38 1
  70   35   68 1
  71   36   37 1
  72   36   69 1
  73   36   70 1
  74   37   71 1
  75   37   72 1
  76   38   39 1
  77   38   73 1
  78   38   74 1
  79   39   75 1
  80   39   76 1

#	End of record

