#	Name: ASD03082292
#	Creating user name:	WinNT
#	Creation time:	15. 06. 2019 20:27

#	Modifying user name:	WinNT
#	Modification time:	15. 06. 2019 20:27

#	Program:	/corina/corina34_cracker 3.40 0067  02.08.2006

@<TRIPOS>MOLECULE
ASD03082292
  41   43    0    0    0
SMALL
NO_CHARGES


@<TRIPOS>ATOM
   1 N1             0.0058     1.3961     0.2400 N.am    
   2 N2             0.0104    -0.0036     0.1250 N.2     
   3 C3             1.2362    -0.3594    -0.1804 C.2     
   4 N4             2.0036     0.7304    -0.2646 N.2     
   5 C5             1.2833     1.8032    -0.0148 C.2     
   6 N6             1.6693    -1.6689    -0.3840 N.pl3   
   7 C7             0.7987    -2.7369    -0.1516 C.ar    
   8 C8             0.9852    -3.9432    -0.8143 C.ar    
   9 C9             0.1220    -4.9991    -0.5827 C.ar    
  10 C10           -0.9274    -4.8541     0.3092 C.ar    
  11 C11           -1.1155    -3.6521     0.9707 C.ar    
  12 C12           -0.2511    -2.5955     0.7468 C.ar    
  13 C13            1.7709     3.2002    -0.0117 C.ar    
  14 C14           -1.0494     2.1803     0.5368 C.2     
  15 C15            3.0655     3.5090     0.4255 C.ar    
  16 C16            3.4832     4.8226     0.4135 C.ar    
  17 N17            2.6831     5.7865    -0.0018 N.ar    
  18 C18            1.4518     5.5422    -0.4238 C.ar    
  19 C19            0.9548     4.2452    -0.4499 C.ar    
  20 N20           -2.2784     1.6399     0.6548 N.am    
  21 F21           -2.1407    -3.5131     1.8396 F       
  22 N22            0.6497     6.5945    -0.8510 N.pl3   
  23 F23            0.3027    -6.1725    -1.2274 F       
  24 C24           -0.7135     6.3332    -1.3194 C.3     
  25 C25           -3.4255     2.4923     0.9774 C.3     
  26 O26           -0.8927     3.3744     0.6979 O.2     
  27 H27            2.5750    -1.8386    -0.6870 H       
  28 H28            1.8032    -4.0566    -1.5102 H       
  29 H29           -1.6004    -5.6795     0.4888 H       
  30 H30           -0.3954    -1.6598     1.2666 H       
  31 H31            3.7279     2.7277     0.7680 H       
  32 H32            4.4802     5.0667     0.7494 H       
  33 H33           -0.0496     4.0493    -0.7949 H       
  34 H34           -2.4035     0.6867     0.5262 H       
  35 H35            0.9929     7.5017    -0.8388 H       
  36 H36           -1.1840     7.2724    -1.6104 H       
  37 H37           -0.6804     5.6622    -2.1777 H       
  38 H38           -1.2905     5.8707    -0.5186 H       
  39 H39           -3.2581     2.9783     1.9386 H       
  40 H40           -3.5442     3.2500     0.2029 H       
  41 H41           -4.3275     1.8827     1.0307 H       
@<TRIPOS>BOND
   1    1    2 1
   2    1    5 1
   3    1   14 am
   4    2    3 2
   5    3    4 1
   6    3    6 1
   7    4    5 2
   8    5   13 1
   9    6    7 1
  10    6   27 1
  11    7    8 ar
  12    7   12 ar
  13    8    9 ar
  14    8   28 1
  15    9   10 ar
  16    9   23 1
  17   10   11 ar
  18   10   29 1
  19   11   12 ar
  20   11   21 1
  21   12   30 1
  22   13   15 ar
  23   13   19 ar
  24   14   20 am
  25   14   26 2
  26   15   16 ar
  27   15   31 1
  28   16   17 ar
  29   16   32 1
  30   17   18 ar
  31   18   19 ar
  32   18   22 1
  33   19   33 1
  34   20   25 1
  35   20   34 1
  36   22   24 1
  37   22   35 1
  38   24   36 1
  39   24   37 1
  40   24   38 1
  41   25   39 1
  42   25   40 1
  43   25   41 1

#	End of record

