#	Name: ASD01040039
#	Creating user name:	WinNT
#	Creation time:	15. 06. 2019 18:58

#	Modifying user name:	WinNT
#	Modification time:	15. 06. 2019 18:58

#	Program:	/corina/corina34_cracker 3.40 0067  02.08.2006

@<TRIPOS>MOLECULE
ASD01040039
  47   49    0    0    0
SMALL
NO_CHARGES


@<TRIPOS>ATOM
   1 O1            -0.0163     1.3545     0.0095 O.3     
   2 C2             0.0021    -0.0041     0.0020 C.ar    
   3 C3             0.0230    -0.7032     1.2014 C.ar    
   4 C4             0.0417    -2.0820     1.1972 C.ar    
   5 C5             0.0392    -2.7740    -0.0132 C.ar    
   6 C6             0.0588    -4.2565    -0.0214 C.2     
   7 C7             1.2374    -4.9852     0.5059 C.ar    
   8 C8             2.4715    -4.8730    -0.1332 C.ar    
   9 C9             3.5658    -5.5521     0.3596 C.ar    
  10 C10            3.4395    -6.3472     1.4908 C.ar    
  11 O11            4.5196    -7.0150     1.9740 O.3     
  12 C12            2.2120    -6.4610     2.1296 C.ar    
  13 C13            1.1154    -5.7796     1.6453 C.ar    
  14 C14           -0.9877    -4.9371    -0.5048 C.2     
  15 C15           -0.9882    -6.4497    -0.5224 C.3     
  16 C16           -1.3456    -6.9204    -1.9362 C.3     
  17 C17           -2.6694    -6.2847    -2.3639 C.3     
  18 C18           -3.0730    -6.8255    -3.7370 C.3     
  19 C19           -4.4556    -6.2873    -4.1109 C.3     
  20 C20           -2.5137    -4.7650    -2.4417 C.3     
  21 C21           -2.2027    -4.2134    -1.0417 C.3     
  22 C22            0.0177    -2.0690    -1.2160 C.ar    
  23 C23           -0.0058    -0.6904    -1.2049 C.ar    
  24 H24            0.8616     1.7598     0.0033 H       
  25 H25            0.0249    -0.1666     2.1387 H       
  26 H26            0.0586    -2.6252     2.1305 H       
  27 H27            2.5702    -4.2553    -1.0136 H       
  28 H28            4.5220    -5.4656    -0.1350 H       
  29 H29            5.0329    -6.5152     2.6235 H       
  30 H30            2.1170    -7.0803     3.0093 H       
  31 H31            0.1619    -5.8650     2.1452 H       
  32 H32            0.0012    -6.8193    -0.2527 H       
  33 H33           -1.7274    -6.8239     0.1858 H       
  34 H34           -0.5584    -6.6218    -2.6286 H       
  35 H35           -1.4440    -8.0059    -1.9440 H       
  36 H36           -3.4420    -6.5319    -1.6358 H       
  37 H37           -2.3448    -6.5052    -4.4821 H       
  38 H38           -3.1039    -7.9146    -3.7039 H       
  39 H39           -5.1839    -6.6076    -3.3658 H       
  40 H40           -4.4247    -5.1983    -4.1441 H       
  41 H41           -4.7431    -6.6726    -5.0891 H       
  42 H42           -1.6990    -4.5174    -3.1222 H       
  43 H43           -3.4403    -4.3230    -2.8080 H       
  44 H44           -3.0524    -4.3842    -0.3807 H       
  45 H45           -1.9941    -3.1454    -1.1057 H       
  46 H46            0.0161    -2.6022    -2.1552 H       
  47 H47           -0.0262    -0.1437    -2.1362 H       
@<TRIPOS>BOND
   1    1    2 1
   2    1   24 1
   3    2    3 ar
   4    2   23 ar
   5    3    4 ar
   6    3   25 1
   7    4    5 ar
   8    4   26 1
   9    5    6 1
  10    5   22 ar
  11    6    7 1
  12    6   14 2
  13    7    8 ar
  14    7   13 ar
  15    8    9 ar
  16    8   27 1
  17    9   28 1
  18    9   10 ar
  19   10   11 1
  20   10   12 ar
  21   11   29 1
  22   12   30 1
  23   12   13 ar
  24   13   31 1
  25   14   15 1
  26   14   21 1
  27   15   16 1
  28   15   32 1
  29   15   33 1
  30   16   34 1
  31   16   35 1
  32   16   17 1
  33   17   18 1
  34   17   36 1
  35   17   20 1
  36   18   19 1
  37   18   37 1
  38   18   38 1
  39   19   39 1
  40   19   40 1
  41   19   41 1
  42   20   42 1
  43   20   43 1
  44   20   21 1
  45   21   44 1
  46   21   45 1
  47   22   46 1
  48   22   23 ar
  49   23   47 1

#	End of record

