#	Name: ASD01913740
#	Creating user name:	WinNT
#	Creation time:	15. 06. 2019 20:02

#	Modifying user name:	WinNT
#	Modification time:	15. 06. 2019 20:02

#	Program:	/corina/corina34_cracker 3.40 0067  02.08.2006

@<TRIPOS>MOLECULE
ASD01913740
  46   48    0    0    0
SMALL
NO_CHARGES


@<TRIPOS>ATOM
   1 O1            -0.0163     1.3508     0.0095 O.3     
   2 C2             0.0021    -0.0041     0.0020 C.ar    
   3 N3             1.1629    -0.6408    -0.0125 N.ar    
   4 C4             1.2330    -1.9556    -0.0202 C.ar    
   5 C5             0.0719    -2.7293    -0.0137 C.ar    
   6 C6            -1.1744    -2.0856     0.0016 C.ar    
   7 C7            -1.1994    -0.7064     0.0154 C.ar    
   8 C8             0.1538    -4.2032    -0.0234 C.2     
   9 N9             1.3565    -4.8112    -0.0386 N.am    
  10 O10           -0.8637    -4.8686    -0.0177 O.2     
  11 C11            1.2480     2.0168     0.0010 C.3     
  12 C12            1.0303     3.5079     0.0111 C.ar    
  13 C13            0.9419     4.1854     1.2128 C.ar    
  14 C14            0.7422     5.5532     1.2220 C.ar    
  15 C15            0.6313     6.2436     0.0296 C.ar    
  16 C16            0.7206     5.5663    -1.1722 C.ar    
  17 C17            0.9247     4.1991    -1.1814 C.ar    
  18 C18            1.4378    -6.2739    -0.0482 C.3     
  19 C19            2.7772    -6.7142     0.5460 C.3     
  20 C20            2.8621    -8.2418     0.5359 C.3     
  21 C21            2.7511    -8.7493    -0.9032 C.3     
  22 C22            1.4116    -8.3090    -1.4973 C.3     
  23 C23            1.3268    -6.7814    -1.4873 C.3     
  24 O24            2.8809    -6.2402     1.8901 O.3     
  25 H25            2.1983    -2.4397    -0.0320 H       
  26 H26           -2.0916    -2.6557     0.0069 H       
  27 H27           -2.1409    -0.1774     0.0278 H       
  28 H28            2.1684    -4.2803    -0.0432 H       
  29 H29            1.8174     1.7267     0.8840 H       
  30 H30            1.8004     1.7363    -0.8958 H       
  31 H31            1.0285     3.6460     2.1444 H       
  32 H32            0.6724     6.0824     2.1609 H       
  33 H33            0.4745     7.3122     0.0368 H       
  34 H34            0.6337     6.1056    -2.1038 H       
  35 H35            0.9945     3.6699    -2.1203 H       
  36 H36            0.6231    -6.6870     0.5466 H       
  37 H37            3.5919    -6.3011    -0.0488 H       
  38 H38            3.8163    -8.5555     0.9592 H       
  39 H39            2.0474    -8.6549     1.1307 H       
  40 H40            3.5657    -8.3363    -1.4980 H       
  41 H41            2.8115    -9.8376    -0.9103 H       
  42 H42            1.3326    -8.6706    -2.5226 H       
  43 H43            0.5970    -8.7221    -0.9025 H       
  44 H44            0.3726    -6.4678    -1.9106 H       
  45 H45            2.1415    -6.3684    -2.0821 H       
  46 H46            3.7070    -6.4830     2.3301 H       
@<TRIPOS>BOND
   1    1    2 1
   2    1   11 1
   3    2    3 ar
   4    2    7 ar
   5    3    4 ar
   6    4    5 ar
   7    4   25 1
   8    5    6 ar
   9    5    8 1
  10    6    7 ar
  11    6   26 1
  12    7   27 1
  13    8    9 am
  14    8   10 2
  15    9   18 1
  16    9   28 1
  17   11   12 1
  18   11   29 1
  19   11   30 1
  20   12   13 ar
  21   12   17 ar
  22   13   14 ar
  23   13   31 1
  24   14   15 ar
  25   14   32 1
  26   15   16 ar
  27   15   33 1
  28   16   17 ar
  29   16   34 1
  30   17   35 1
  31   18   19 1
  32   18   23 1
  33   18   36 1
  34   19   20 1
  35   19   24 1
  36   19   37 1
  37   20   21 1
  38   20   38 1
  39   20   39 1
  40   21   22 1
  41   21   40 1
  42   21   41 1
  43   22   23 1
  44   22   42 1
  45   22   43 1
  46   23   44 1
  47   23   45 1
  48   24   46 1

#	End of record

