#	Name: ASD01913027
#	Creating user name:	WinNT
#	Creation time:	15. 06. 2019 20:00

#	Modifying user name:	WinNT
#	Modification time:	15. 06. 2019 20:00

#	Program:	/corina/corina34_cracker 3.40 0067  02.08.2006

@<TRIPOS>MOLECULE
ASD01913027
  29   30    0    0    0
SMALL
NO_CHARGES


@<TRIPOS>ATOM
   1 C1            -0.0173     1.4278     0.0099 C.ar    
   2 C2             0.0021    -0.0041     0.0020 C.1     
   3 C3             0.0180    -1.1779    -0.0044 C.1     
   4 C4             0.0374    -2.6098    -0.0123 C.ar    
   5 N5             1.1219     2.1198     0.0027 N.ar    
   6 N6             1.1000     3.4071     0.0094 N.ar    
   7 C7            -0.0448     4.0795     0.0235 C.ar    
   8 N8            -1.2112     3.4443     0.0316 N.ar    
   9 C9            -1.2351     2.1229     0.0194 C.ar    
  10 C10            1.2581     6.1748     0.0219 C.3     
  11 N11           -0.0224     5.4629     0.0302 N.pl3   
  12 C12           -1.1612    -3.3283    -0.0047 C.ar    
  13 C13           -1.1346    -4.7072    -0.0123 C.ar    
  14 C14            0.0750    -5.3793    -0.0275 C.ar    
  15 C15            1.2659    -4.6745    -0.0350 C.ar    
  16 C16            1.2550    -3.2954    -0.0334 C.ar    
  17 C17           -1.2790     6.2159     0.0458 C.3     
  18 H18           -2.1739     1.5890     0.0257 H       
  19 H19            2.0749     5.4531     0.0106 H       
  20 H20            1.3177     6.8049    -0.8656 H       
  21 H21            1.3343     6.7959     0.9143 H       
  22 H22           -2.1059    -2.8051     0.0074 H       
  23 H23           -2.0601    -5.2638    -0.0061 H       
  24 H24            0.0896    -6.4591    -0.0330 H       
  25 H25            2.2061    -5.2058    -0.0468 H       
  26 H26            2.1852    -2.7466    -0.0393 H       
  27 H27           -1.6002     6.4078    -0.9780 H       
  28 H28           -2.0432     5.6366     0.5638 H       
  29 H29           -1.1284     7.1635     0.5630 H       
@<TRIPOS>BOND
   1    1    2 1
   2    1    5 ar
   3    1    9 ar
   4    2    3 3
   5    3    4 1
   6    4   12 ar
   7    4   16 ar
   8    5    6 ar
   9    6    7 ar
  10    7    8 ar
  11    7   11 1
  12    8    9 ar
  13    9   18 1
  14   10   11 1
  15   10   19 1
  16   10   20 1
  17   10   21 1
  18   11   17 1
  19   12   13 ar
  20   12   22 1
  21   13   14 ar
  22   13   23 1
  23   14   15 ar
  24   14   24 1
  25   15   16 ar
  26   15   25 1
  27   16   26 1
  28   17   27 1
  29   17   28 1
  30   17   29 1

#	End of record

