#	Name: ASD02150007
#	Creating user name:	WinNT
#	Creation time:	15. 06. 2019 20:18

#	Modifying user name:	WinNT
#	Modification time:	15. 06. 2019 20:18

#	Program:	/corina/corina34_cracker 3.40 0067  02.08.2006

@<TRIPOS>MOLECULE
ASD02150007
  58   62    0    0    0
SMALL
NO_CHARGES


@<TRIPOS>ATOM
   1 C1             0.2172     1.2892     0.1411 C.3     
   2 N2             0.4115    -0.1577    -0.1407 N.am    
   3 C3             1.3165    -0.7341    -1.0253 C.2     
   4 C4             2.3766    -0.0203    -1.4615 C.2     
   5 C5             2.6959     1.4096    -1.1692 C.3     
   6 S6             1.8854     1.9971     0.3488 S.3     
   7 C7            -0.5017     0.9243     1.4274 C.3     
   8 C8            -0.4274    -0.4660     0.8421 C.2     
   9 N9             0.2972     1.1129     2.6408 N.am    
  10 C10           -0.3136     1.3216     3.8240 C.2     
  11 O11           -1.5211     1.4496     3.8703 O.2     
  12 C12            0.4872     1.3947     5.0681 C.2     
  13 N13           -0.1090     1.4905     6.2211 N.2     
  14 O14           -1.5209     1.4124     6.2967 O.3     
  15 C15            1.9664     1.3589     4.9999 C.2     
  16 N16            2.5903     1.1586     3.8654 N.2     
  17 N17            2.7072     1.5331     6.0799 N.2     
  18 C18            4.0099     1.4846     5.9186 C.2     
  19 S19            4.2479     1.1942     4.2375 S.3     
  20 N20            4.9822     1.6364     6.8900 N.pl3   
  21 O21           -0.9549    -1.5104     1.1613 O.2     
  22 C22            3.2922    -0.7071    -2.2920 C.2     
  23 C23            3.4405    -0.3381    -3.5864 C.2     
  24 C24            2.7856     0.8443    -4.2697 C.3     
  25 C25            4.2695    -1.0013    -4.5940 C.2     
  26 N26            4.1951    -0.3830    -5.7788 N.am    
  27 C27            3.3063     0.7789    -5.7153 C.3     
  28 C28            4.9124    -0.8114    -6.9822 C.3     
  29 C29            6.4321    -0.7909    -6.7343 C.3     
  30 O30            4.9433    -1.9918    -4.3808 O.2     
  31 N31            6.9151    -2.1807    -6.8853 N.4     
  32 C32            5.9393    -2.8535    -7.7804 C.3     
  33 C33            4.5768    -2.2842    -7.3112 C.3     
  34 C34            1.1190    -2.1197    -1.4858 C.2     
  35 O35            1.8550    -2.5905    -2.3421 O.co2   
  36 O36            0.2189    -2.7994    -1.0118 O.co2   
  37 H37           -0.3921     1.8173    -0.5923 H       
  38 H38            3.7750     1.5156    -1.0581 H       
  39 H39            2.3660     2.0242    -2.0068 H       
  40 H40           -1.5121     1.3253     1.5071 H       
  41 H41            1.2656     1.0877     2.5927 H       
  42 H42           -1.8717     1.4939     7.1941 H       
  43 H43            4.7261     1.7993     7.8113 H       
  44 H44            5.9204     1.5802     6.6502 H       
  45 H45            3.8732    -1.5258    -1.8939 H       
  46 H46            1.7005     0.7435    -4.2499 H       
  47 H47            3.0920     1.7767    -3.7955 H       
  48 H48            2.4744     0.6523    -6.4081 H       
  49 H49            3.8593     1.6870    -5.9551 H       
  50 H50            4.6576    -0.1667    -7.8234 H       
  51 H51            6.9192    -0.1470    -7.4666 H       
  52 H52            6.6391    -0.4334    -5.7257 H       
  53 H53            7.8330    -2.1864    -7.3043 H       
  54 H54            6.9382    -2.6404    -5.9874 H       
  55 H55            6.1278    -2.5914    -8.8214 H       
  56 H56            5.9725    -3.9343    -7.6426 H       
  57 H57            4.2256    -2.8077    -6.4220 H       
  58 H58            3.8385    -2.3421    -8.1111 H       
@<TRIPOS>BOND
   1    1    2 1
   2    1    6 1
   3    1    7 1
   4    1   37 1
   5    2    3 1
   6    2    8 am
   7    3    4 2
   8    3   34 1
   9    4    5 1
  10    4   22 1
  11    5    6 1
  12    5   38 1
  13    5   39 1
  14    7    8 1
  15    7    9 1
  16    7   40 1
  17    8   21 2
  18    9   10 am
  19    9   41 1
  20   10   11 2
  21   10   12 1
  22   12   13 2
  23   12   15 1
  24   13   14 1
  25   14   42 1
  26   15   16 2
  27   15   17 1
  28   16   19 1
  29   17   18 2
  30   18   19 1
  31   18   20 1
  32   20   43 1
  33   20   44 1
  34   22   23 2
  35   22   45 1
  36   23   24 1
  37   23   25 1
  38   24   27 1
  39   24   46 1
  40   24   47 1
  41   25   26 am
  42   25   30 2
  43   26   27 1
  44   26   28 1
  45   27   48 1
  46   27   49 1
  47   28   29 1
  48   28   33 1
  49   28   50 1
  50   29   31 1
  51   29   51 1
  52   29   52 1
  53   31   32 1
  54   31   53 1
  55   31   54 1
  56   32   33 1
  57   32   55 1
  58   32   56 1
  59   33   57 1
  60   33   58 1
  61   34   35 ar
  62   34   36 ar

#	End of record

