#	Name: ASD01841030
#	Creating user name:	WinNT
#	Creation time:	15. 06. 2019 19:38

#	Modifying user name:	WinNT
#	Modification time:	15. 06. 2019 19:38

#	Program:	/corina/corina34_cracker 3.40 0067  02.08.2006

@<TRIPOS>MOLECULE
ASD01841030
  44   46    0    0    0
SMALL
NO_CHARGES


@<TRIPOS>ATOM
   1 C1            -0.0184     1.5028     0.0103 C.2     
   2 C2             0.0021    -0.0041     0.0020 C.3     
   3 O3             1.0235     2.1234     0.0037 O.2     
   4 N4            -1.1946     2.1607     0.0195 N.am    
   5 S5            -2.6702     4.5308     0.0393 S.3     
   6 C6            -1.2134     3.5468     0.0271 C.2     
   7 N7            -0.1667     4.2960     0.0266 N.2     
   8 C8            -0.3470     5.6321     0.0351 C.ar    
   9 C9            -1.6950     5.9985     0.0433 C.ar    
  10 C10           -2.0612     7.3435     0.0520 C.ar    
  11 C11           -1.0965     8.3260     0.0521 C.ar    
  12 C12            0.2464     7.9801     0.0436 C.ar    
  13 C13            0.6281     6.6574     0.0356 C.ar    
  14 C14           -3.5193     7.7239     0.0608 C.3     
  15 O15            1.9486     6.3346     0.0282 O.3     
  16 C16            2.8811     7.4174     0.0292 C.3     
  17 C17            1.3686    -0.6920    -0.0147 C.3     
  18 C18            0.5184    -0.7105     1.2571 C.3     
  19 C19            1.4922    -1.9986    -0.8010 C.3     
  20 C20            2.9513    -2.4588    -0.7994 C.3     
  21 C21            3.0749    -3.7655    -1.5856 C.3     
  22 C22            4.5340    -4.2257    -1.5840 C.3     
  23 H23           -0.8088    -0.4822    -0.5474 H       
  24 H24           -2.0280     1.6644     0.0207 H       
  25 H25           -1.3859     9.3665     0.0585 H       
  26 H26            0.9990     8.7547     0.0434 H       
  27 H27           -3.8661     7.8103     1.0906 H       
  28 H28           -3.6486     8.6794    -0.4475 H       
  29 H29           -4.0980     6.9571    -0.4543 H       
  30 H30            2.7249     8.0323    -0.8572 H       
  31 H31            2.7328     8.0238     0.9227 H       
  32 H32            3.8969     7.0222     0.0228 H       
  33 H33            2.2529    -0.0546    -0.0197 H       
  34 H34            0.8432    -0.0854     2.0889 H       
  35 H35            0.0470    -1.6536     1.5337 H       
  36 H36            0.8696    -2.7629    -0.3357 H       
  37 H37            1.1632    -1.8375    -1.8276 H       
  38 H38            3.5738    -1.6946    -1.2646 H       
  39 H39            3.2803    -2.6200     0.2272 H       
  40 H40            2.4524    -4.5298    -1.1204 H       
  41 H41            2.7459    -3.6043    -2.6122 H       
  42 H42            4.8630    -4.3869    -0.5574 H       
  43 H43            4.6220    -5.1566    -2.1442 H       
  44 H44            5.1565    -3.4614    -2.0493 H       
@<TRIPOS>BOND
   1    1    2 1
   2    1    3 2
   3    1    4 am
   4    2   17 1
   5    2   18 1
   6    2   23 1
   7    4    6 1
   8    4   24 1
   9    5    6 1
  10    5    9 1
  11    6    7 2
  12    7    8 1
  13    8    9 ar
  14    8   13 ar
  15    9   10 ar
  16   10   11 ar
  17   10   14 1
  18   11   12 ar
  19   11   25 1
  20   12   13 ar
  21   12   26 1
  22   13   15 1
  23   14   27 1
  24   14   28 1
  25   14   29 1
  26   15   16 1
  27   16   30 1
  28   16   31 1
  29   16   32 1
  30   17   18 1
  31   17   19 1
  32   17   33 1
  33   18   34 1
  34   18   35 1
  35   19   20 1
  36   19   36 1
  37   19   37 1
  38   20   21 1
  39   20   38 1
  40   20   39 1
  41   21   22 1
  42   21   40 1
  43   21   41 1
  44   22   42 1
  45   22   43 1
  46   22   44 1

#	End of record

