#	Name: ASD01917247
#	Creating user name:	WinNT
#	Creation time:	15. 06. 2019 20:08

#	Modifying user name:	WinNT
#	Modification time:	15. 06. 2019 20:08

#	Program:	/corina/corina34_cracker 3.40 0067  02.08.2006

@<TRIPOS>MOLECULE
ASD01917247
  44   47    0    0    0
SMALL
NO_CHARGES


@<TRIPOS>ATOM
   1 C1             0.1516     0.6880    -0.4927 C.ar    
   2 C2             0.3193    -0.6708    -0.3023 C.ar    
   3 C3             1.5835    -1.1882    -0.0903 C.ar    
   4 C4             2.6801    -0.3468    -0.0691 C.ar    
   5 C5             2.5125     1.0120    -0.2604 C.ar    
   6 C6             1.2481     1.5295    -0.4710 C.ar    
   7 C7             3.7079     1.9293    -0.2368 C.3     
   8 O8             4.2407     2.0515    -1.5571 O.3     
   9 C9             5.3307     2.8500    -1.7116 C.2     
  10 N10            5.9350     3.5177    -0.7505 N.2     
  11 N11            6.9992     4.2207    -1.3000 N.pl3   
  12 C12            7.0323     3.9428    -2.6482 C.2     
  13 C13            6.0000     3.0934    -2.9190 C.2     
  14 C14            7.9640     5.1268    -0.6745 C.3     
  15 C15            9.2815     5.0721    -1.4477 C.3     
  16 N16            9.0889     5.1611    -2.8908 N.am    
  17 C17            8.0728     4.5194    -3.5158 C.2     
  18 O18            8.0229     4.4243    -4.7275 O.2     
  19 C19            9.9776     5.9305    -3.6501 C.ar    
  20 C20           11.3020     5.5344    -3.7828 C.ar    
  21 C21           12.1774     6.2952    -4.5326 C.ar    
  22 C22           11.7354     7.4523    -5.1518 C.ar    
  23 C23           10.4153     7.8493    -5.0203 C.ar    
  24 C24            9.5350     7.0881    -4.2766 C.ar    
  25 F25           12.5934     8.1951    -5.8848 F       
  26 C26            7.4152     6.5547    -0.7006 C.3     
  27 H27           -0.8356     1.0917    -0.6628 H       
  28 H28           -0.5375    -1.3282    -0.3189 H       
  29 H29            1.7144    -2.2498     0.0591 H       
  30 H30            3.6677    -0.7509     0.0972 H       
  31 H31            1.1172     2.5911    -0.6208 H       
  32 H32            3.4048     2.9118     0.1250 H       
  33 H33            4.4691     1.5171     0.4255 H       
  34 H34            5.7420     2.6881    -3.8863 H       
  35 H35            8.1347     4.8206     0.3576 H       
  36 H36            9.9138     5.8993    -1.1250 H       
  37 H37            9.7867     4.1343    -1.2168 H       
  38 H38           11.6472     4.6323    -3.2998 H       
  39 H39           13.2076     5.9878    -4.6358 H       
  40 H40           10.0726     8.7523    -5.5038 H       
  41 H41            8.5055     7.3981    -4.1743 H       
  42 H42            6.4737     6.5922    -0.1524 H       
  43 H43            8.1339     7.2288    -0.2347 H       
  44 H44            7.2468     6.8604    -1.7332 H       
@<TRIPOS>BOND
   1    1    2 ar
   2    1    6 ar
   3    1   27 1
   4    2    3 ar
   5    2   28 1
   6    3    4 ar
   7    3   29 1
   8    4    5 ar
   9    4   30 1
  10    5    6 ar
  11    5    7 1
  12    6   31 1
  13    7    8 1
  14    7   32 1
  15    7   33 1
  16    8    9 1
  17    9   10 2
  18    9   13 1
  19   10   11 1
  20   11   12 1
  21   11   14 1
  22   12   13 2
  23   12   17 1
  24   13   34 1
  25   14   15 1
  26   14   26 1
  27   14   35 1
  28   15   16 1
  29   15   36 1
  30   15   37 1
  31   16   17 am
  32   16   19 1
  33   17   18 2
  34   19   20 ar
  35   19   24 ar
  36   20   21 ar
  37   20   38 1
  38   21   22 ar
  39   21   39 1
  40   22   23 ar
  41   22   25 1
  42   23   24 ar
  43   23   40 1
  44   24   41 1
  45   26   42 1
  46   26   43 1
  47   26   44 1

#	End of record

