#	Name: ASD09200040
#	Creating user name:	WinNT
#	Creation time:	15. 06. 2019 21:21

#	Modifying user name:	WinNT
#	Modification time:	15. 06. 2019 21:21

#	Program:	/corina/corina34_cracker 3.40 0067  02.08.2006

@<TRIPOS>MOLECULE
ASD09200040
  45   48    0    0    0
SMALL
NO_CHARGES


@<TRIPOS>ATOM
   1 N1            -0.0161     1.3368     0.0094 N.am    
   2 C2             0.0021    -0.0041     0.0020 C.2     
   3 S3             1.2792    -0.9035    -0.0145 S.o     
   4 C4             0.4645    -2.4790    -0.0148 C.2     
   5 C5            -0.8460    -2.1579    -0.0010 C.2     
   6 N6            -1.0618    -0.7976     0.0133 N.am    
   7 C7            -1.9303    -3.1559     0.0041 C.ar    
   8 C8            -3.2648    -2.7464     0.0181 C.ar    
   9 N9            -4.2519    -3.6172     0.0230 N.ar    
  10 C10           -4.0280    -4.9440     0.0147 C.ar    
  11 C11           -2.7010    -5.4432     0.0003 C.ar    
  12 C12           -1.6293    -4.5357    -0.0111 C.ar    
  13 C13            1.2378     2.1025     0.0015 C.3     
  14 C14            1.1993     3.0998    -1.1607 C.3     
  15 C15           -0.0616     3.9597    -1.0482 C.3     
  16 C16           -1.3005     3.0657    -1.1375 C.3     
  17 C17           -1.2904     2.0681     0.0193 C.3     
  18 C18           -0.0592     4.6948     0.2937 C.3     
  19 N19           -0.0851     4.9395    -2.1425 N.3     
  20 C20           -5.0956    -5.8459     0.0207 C.ar    
  21 C21           -4.8490    -7.2093     0.0125 C.ar    
  22 C22           -3.5519    -7.6973    -0.0017 C.ar    
  23 C23           -2.4762    -6.8316    -0.0074 C.ar    
  24 H24            1.7145    -0.7877    -1.2818 H       
  25 H25            0.9114    -3.4621    -0.0243 H       
  26 H26           -1.9603    -0.4322     0.0244 H       
  27 H27           -3.4926    -1.6907     0.0255 H       
  28 H28           -0.6065    -4.8823    -0.0222 H       
  29 H29            1.3423     2.6422     0.9428 H       
  30 H30            2.0801     1.4229    -0.1279 H       
  31 H31            2.0808     3.7396    -1.1205 H       
  32 H32            1.1862     2.5568    -2.1057 H       
  33 H33           -2.1983     3.6814    -1.0808 H       
  34 H34           -1.2901     2.5230    -2.0828 H       
  35 H35           -2.1166     1.3666    -0.0959 H       
  36 H36           -1.3913     2.6028     0.9638 H       
  37 H37            0.8225     5.3325     0.3571 H       
  38 H38           -0.9572     5.3074     0.3741 H       
  39 H39           -0.0412     3.9682     1.1060 H       
  40 H40           -0.9087     5.5200    -2.0904 H       
  41 H41            0.7534     5.5007    -2.1434 H       
  42 H42           -6.1119    -5.4805     0.0321 H       
  43 H43           -5.6785    -7.9009     0.0175 H       
  44 H44           -3.3811    -8.7637    -0.0076 H       
  45 H45           -1.4679    -7.2184    -0.0191 H       
@<TRIPOS>BOND
   1    1    2 am
   2    1   13 1
   3    1   17 1
   4    2    3 2
   5    2    6 am
   6    3    4 1
   7    3   24 1
   8    4    5 2
   9    4   25 1
  10    5    6 1
  11    5    7 1
  12    6   26 1
  13    7    8 ar
  14    7   12 ar
  15    8    9 ar
  16    8   27 1
  17    9   10 ar
  18   10   11 ar
  19   10   20 ar
  20   11   12 ar
  21   11   23 ar
  22   12   28 1
  23   13   14 1
  24   13   29 1
  25   13   30 1
  26   14   15 1
  27   14   31 1
  28   14   32 1
  29   15   16 1
  30   15   18 1
  31   15   19 1
  32   16   17 1
  33   16   33 1
  34   16   34 1
  35   17   35 1
  36   17   36 1
  37   18   37 1
  38   18   38 1
  39   18   39 1
  40   19   40 1
  41   19   41 1
  42   20   21 ar
  43   20   42 1
  44   21   22 ar
  45   21   43 1
  46   22   23 ar
  47   22   44 1
  48   23   45 1

#	End of record

