#	Name: ASD01811723
#	Creating user name:	WinNT
#	Creation time:	15. 06. 2019 19:27

#	Modifying user name:	WinNT
#	Modification time:	15. 06. 2019 19:27

#	Program:	/corina/corina34_cracker 3.40 0067  02.08.2006

@<TRIPOS>MOLECULE
ASD01811723
  57   61    0    0    0
SMALL
NO_CHARGES


@<TRIPOS>ATOM
   1 C1            -0.0167     1.3805     0.0096 C.ar    
   2 C2             0.0021    -0.0041     0.0020 C.ar    
   3 C3             1.2075    -0.6836    -0.0127 C.ar    
   4 C4             2.3988     0.0118    -0.0203 C.ar    
   5 C5             2.3881     1.4079    -0.0132 C.ar    
   6 C6             1.1658     2.0836     0.0021 C.ar    
   7 C7            -1.2939    -0.7731     0.0103 C.3     
   8 C8             1.2188    -2.1905    -0.0199 C.3     
   9 C9             1.0853    -2.6871    -1.4364 C.ar    
  10 C10            2.2179    -2.9047    -2.2000 C.ar    
  11 C11            2.1013    -3.3594    -3.4980 C.ar    
  12 C12            0.8399    -3.5998    -4.0385 C.ar    
  13 C13           -0.2976    -3.3794    -3.2648 C.ar    
  14 C14           -0.1693    -2.9291    -1.9664 C.ar    
  15 C15            0.7083    -4.0884    -5.4338 C.2     
  16 C16           -0.4986    -4.3708    -6.1025 C.2     
  17 C17           -0.1928    -4.7889    -7.3501 C.2     
  18 N18            1.1516    -4.7754    -7.4763 N.pl3   
  19 N19            1.6987    -4.3288    -6.2667 N.2     
  20 C20            1.9067    -5.1571    -8.6724 C.3     
  21 C21            3.4708     2.4102    -0.0183 C.2     
  22 N22            2.9565     3.6521    -0.0072 N.am    
  23 C23            1.4923     3.5561     0.0064 C.3     
  24 O24            4.6581     2.1501    -0.0300 O.2     
  25 C25            3.7301     4.8962    -0.0086 C.3     
  26 C26            4.6096     4.9685    -1.2691 C.3     
  27 C27            6.0720     5.0375    -0.7827 C.3     
  28 C28            6.0325     4.4049     0.6305 C.3     
  29 C29            4.6887     4.9237     1.1998 C.3     
  30 O30            4.2889     6.1391    -2.0233 O.3     
  31 H31           -0.9590     1.9081     0.0170 H       
  32 H32            3.3374    -0.5224    -0.0314 H       
  33 H33           -1.6162    -0.9530    -1.0154 H       
  34 H34           -1.1473    -1.7267     0.5176 H       
  35 H35           -2.0556    -0.1960     0.5345 H       
  36 H36            2.1570    -2.5488     0.4038 H       
  37 H37            0.3854    -2.5629     0.5758 H       
  38 H38            3.1952    -2.7180    -1.7800 H       
  39 H39            2.9863    -3.5283    -4.0935 H       
  40 H40           -1.2777    -3.5641    -3.6789 H       
  41 H41           -1.0503    -2.7582    -1.3656 H       
  42 H42           -1.4921    -4.2711    -5.6909 H       
  43 H43           -0.8992    -5.0824    -8.1125 H       
  44 H44            2.0526    -4.2814    -9.3047 H       
  45 H45            2.8764    -5.5579    -8.3773 H       
  46 H46            1.3527    -5.9160    -9.2249 H       
  47 H47            1.0774     4.0343    -0.8809 H       
  48 H48            1.0945     4.0255     0.9061 H       
  49 H49            3.0586     5.7540     0.0279 H       
  50 H50            4.4609     4.0780    -1.8798 H       
  51 H51            6.7207     4.4598    -1.4412 H       
  52 H52            6.4073     6.0732    -0.7279 H       
  53 H53            6.0306     3.3168     0.5668 H       
  54 H54            6.8692     4.7561     1.2345 H       
  55 H55            4.8006     5.9410     1.5748 H       
  56 H56            4.3279     4.2630     1.9881 H       
  57 H57            4.8104     6.2417    -2.8312 H       
@<TRIPOS>BOND
   1    1    2 ar
   2    1    6 ar
   3    1   31 1
   4    2    3 ar
   5    2    7 1
   6    3    4 ar
   7    3    8 1
   8    4    5 ar
   9    4   32 1
  10    5    6 ar
  11    5   21 1
  12    6   23 1
  13    7   33 1
  14    7   34 1
  15    7   35 1
  16    8    9 1
  17    8   36 1
  18    8   37 1
  19    9   10 ar
  20    9   14 ar
  21   10   11 ar
  22   10   38 1
  23   11   12 ar
  24   11   39 1
  25   12   13 ar
  26   12   15 1
  27   13   14 ar
  28   13   40 1
  29   14   41 1
  30   15   16 1
  31   15   19 2
  32   16   17 2
  33   16   42 1
  34   17   18 1
  35   17   43 1
  36   18   19 1
  37   18   20 1
  38   20   44 1
  39   20   45 1
  40   20   46 1
  41   21   22 am
  42   21   24 2
  43   22   23 1
  44   22   25 1
  45   23   47 1
  46   23   48 1
  47   25   26 1
  48   25   29 1
  49   25   49 1
  50   26   27 1
  51   26   30 1
  52   26   50 1
  53   27   28 1
  54   27   51 1
  55   27   52 1
  56   28   29 1
  57   28   53 1
  58   28   54 1
  59   29   55 1
  60   29   56 1
  61   30   57 1

#	End of record

