#	Name: ASD02500055
#	Creating user name:	WinNT
#	Creation time:	15. 06. 2019 20:22

#	Modifying user name:	WinNT
#	Modification time:	15. 06. 2019 20:22

#	Program:	/corina/corina34_cracker 3.40 0067  02.08.2006

@<TRIPOS>MOLECULE
ASD02500055
  72   76    0    0    0
SMALL
NO_CHARGES


@<TRIPOS>ATOM
   1 N1             1.8450     3.9504    -0.9070 N.ar    
   2 C2             2.8170     3.6368    -0.0853 C.ar    
   3 C3             3.9421     2.9357    -0.5140 C.ar    
   4 C4             4.0519     2.5567    -1.8216 C.ar    
   5 C5             3.0060     2.8949    -2.7011 C.ar    
   6 C6             3.0486     2.5398    -4.0586 C.ar    
   7 C7             2.0170     2.8857    -4.8774 C.ar    
   8 C8             0.9189     3.5883    -4.3859 C.ar    
   9 C9             0.8449     3.9486    -3.0755 C.ar    
  10 C10            1.8901     3.6096    -2.1989 C.ar    
  11 S11           -0.5553     4.8374    -2.4804 S.o2    
  12 O12           -0.0466     5.9376    -1.7387 O.2     
  13 O13           -1.4358     4.9859    -3.5858 O.2     
  14 N14           -1.3311     3.8589    -1.3928 N.am    
  15 C15           -1.8626     2.6428    -1.8075 C.ar    
  16 C16           -1.6332     1.4926    -1.0575 C.ar    
  17 C17           -2.1579     0.2875    -1.4652 C.ar    
  18 C18           -2.9218     0.2191    -2.6340 C.ar    
  19 C19           -3.1503     1.3759    -3.3849 C.ar    
  20 C20           -2.6277     2.5790    -2.9688 C.ar    
  21 C21           -3.4853    -1.0712    -3.0742 C.2     
  22 O22           -4.6082    -1.1176    -3.5384 O.2     
  23 N23           -2.7555    -2.1987    -2.9619 N.am    
  24 C24           -3.2653    -3.4816    -3.4692 C.3     
  25 C25           -2.1941    -4.1106    -4.3664 C.3     
  26 N26           -0.9277    -4.1943    -3.6266 N.3     
  27 C27           -0.4291    -2.8591    -3.2709 C.3     
  28 C28           -1.4255    -2.1776    -2.3343 C.3     
  29 C29            0.0311    -4.9108    -4.3528 C.ar    
  30 C30            1.3009    -5.1033    -3.8248 C.ar    
  31 C31            2.2468    -5.8096    -4.5412 C.ar    
  32 C32            1.9281    -6.3278    -5.7894 C.ar    
  33 C33            0.6581    -6.1358    -6.3172 C.ar    
  34 C34           -0.2894    -5.4339    -5.5985 C.ar    
  35 N35            2.8872    -7.0435    -6.5160 N.pl3   
  36 C36            2.5509    -7.5902    -7.8329 C.3     
  37 C37            2.8766    -6.5564    -8.9127 C.3     
  38 C38            4.2272    -7.2457    -5.9594 C.3     
  39 C39            4.2508    -8.5403    -5.1443 C.3     
  40 H40            2.7438     3.9300     0.9516 H       
  41 H41            4.7270     2.6924     0.1869 H       
  42 H42            4.9171     2.0131    -2.1711 H       
  43 H43            3.8948     1.9957    -4.4514 H       
  44 H44            2.0506     2.6121    -5.9216 H       
  45 H45            0.1136     3.8517    -5.0556 H       
  46 H46           -1.4147     4.1341    -0.4664 H       
  47 H47           -1.0426     1.5460    -0.1548 H       
  48 H48           -1.9793    -0.6045    -0.8832 H       
  49 H49           -3.7398     1.3262    -4.2885 H       
  50 H50           -2.8079     3.4739    -3.5460 H       
  51 H51           -3.4793    -4.1471    -2.6328 H       
  52 H52           -4.1736    -3.3118    -4.0473 H       
  53 H53           -2.5092    -5.1112    -4.6624 H       
  54 H54           -2.0562    -3.4945    -5.2550 H       
  55 H55            0.5357    -2.9520    -2.7724 H       
  56 H56           -0.3159    -2.2604    -4.1747 H       
  57 H57           -1.1180    -1.1461    -2.1625 H       
  58 H58           -1.4592    -2.7153    -1.3867 H       
  59 H59            1.5489    -4.7002    -2.8540 H       
  60 H60            3.2347    -5.9587    -4.1309 H       
  61 H61            0.4102    -6.5388    -7.2881 H       
  62 H62           -1.2784    -5.2880    -6.0072 H       
  63 H63            3.1317    -8.4955    -8.0096 H       
  64 H64            1.4877    -7.8283    -7.8667 H       
  65 H65            2.6264    -6.9631    -9.8925 H       
  66 H66            2.2958    -5.6511    -8.7359 H       
  67 H67            3.9398    -6.3183    -8.8788 H       
  68 H68            4.9513    -7.3142    -6.7712 H       
  69 H69            4.4832    -6.4054    -5.3141 H       
  70 H70            5.2478    -8.6907    -4.7301 H       
  71 H71            3.5267    -8.4718    -4.3324 H       
  72 H72            3.9948    -9.3807    -5.7895 H       
@<TRIPOS>BOND
   1    1    2 ar
   2    1   10 ar
   3    2    3 ar
   4    2   40 1
   5    3    4 ar
   6    3   41 1
   7    4    5 ar
   8    4   42 1
   9    5    6 ar
  10    5   10 ar
  11    6    7 ar
  12    6   43 1
  13    7    8 ar
  14    7   44 1
  15    8    9 ar
  16    8   45 1
  17    9   10 ar
  18    9   11 1
  19   11   12 2
  20   11   13 2
  21   11   14 am
  22   14   15 1
  23   14   46 1
  24   15   16 ar
  25   15   20 ar
  26   16   17 ar
  27   16   47 1
  28   17   18 ar
  29   17   48 1
  30   18   19 ar
  31   18   21 1
  32   19   20 ar
  33   19   49 1
  34   20   50 1
  35   21   22 2
  36   21   23 am
  37   23   24 1
  38   23   28 1
  39   24   25 1
  40   24   51 1
  41   24   52 1
  42   25   26 1
  43   25   53 1
  44   25   54 1
  45   26   27 1
  46   26   29 1
  47   27   28 1
  48   27   55 1
  49   27   56 1
  50   28   57 1
  51   28   58 1
  52   29   30 ar
  53   29   34 ar
  54   30   31 ar
  55   30   59 1
  56   31   32 ar
  57   31   60 1
  58   32   33 ar
  59   32   35 1
  60   33   34 ar
  61   33   61 1
  62   34   62 1
  63   35   36 1
  64   35   38 1
  65   36   37 1
  66   36   63 1
  67   36   64 1
  68   37   65 1
  69   37   66 1
  70   37   67 1
  71   38   39 1
  72   38   68 1
  73   38   69 1
  74   39   70 1
  75   39   71 1
  76   39   72 1

#	End of record

