#	Name: ASD03090295
#	Creating user name:	WinNT
#	Creation time:	15. 06. 2019 20:28

#	Modifying user name:	WinNT
#	Modification time:	15. 06. 2019 20:28

#	Program:	/corina/corina34_cracker 3.40 0067  02.08.2006

@<TRIPOS>MOLECULE
ASD03090295
  50   53    0    0    0
SMALL
NO_CHARGES


@<TRIPOS>ATOM
   1 C1             0.1992     1.0503     0.8595 C.ar    
   2 N2            -0.9107     1.4709     1.4357 N.ar    
   3 C3            -2.0568     0.8415     1.2795 C.ar    
   4 C4            -2.1346    -0.3054     0.4891 C.ar    
   5 C5            -0.9744    -0.7761    -0.1351 C.ar    
   6 C6             0.2039    -0.0754     0.0562 C.ar    
   7 C7            -3.4225    -1.0125     0.3142 C.2     
   8 N8            -6.9282    -1.2512     0.4185 N.pl3   
   9 C9            -7.4274    -0.0695     0.9725 C.ar    
  10 C10           -8.6585     0.4260     0.5608 C.ar    
  11 C11           -9.1517     1.5944     1.1087 C.ar    
  12 C12           -8.4230     2.2730     2.0666 C.ar    
  13 C13           -7.1924     1.7828     2.4818 C.ar    
  14 C14           -6.6965     0.6081     1.9391 C.ar    
  15 N15           -4.6194    -0.5132     0.5498 N.2     
  16 C16           -5.5502    -1.4311     0.2829 C.2     
  17 N17           -4.9618    -2.5309    -0.1273 N.2     
  18 N18           -3.5797    -2.2827    -0.1209 N.pl3   
  19 C19           -2.5181    -3.2178    -0.5016 C.3     
  20 C20           -2.2741    -3.1259    -2.0093 C.3     
  21 C21           -1.0834    -4.0090    -2.3879 C.3     
  22 O22           -6.4768     2.4517     3.4238 O.3     
  23 O23           -3.4384    -3.5708    -2.7082 O.3     
  24 C24            1.4813     1.8124     1.0752 C.3     
  25 C25            2.4118     1.3286     2.1893 C.3     
  26 C26            2.7915     1.1046     0.7242 C.3     
  27 C27           -7.0514     3.6524     3.9436 C.3     
  28 F28           -8.2809     3.3594     4.5433 F       
  29 F29           -6.1891     4.2081     4.8949 F       
  30 F30           -7.2465     4.5651     2.9015 F       
  31 H31           -2.9442     1.2163     1.7678 H       
  32 H32           -0.9983    -1.6611    -0.7536 H       
  33 H33            1.1191    -0.4091    -0.4103 H       
  34 H34           -7.5390    -1.9466     0.1282 H       
  35 H35           -9.2299    -0.1023    -0.1880 H       
  36 H36          -10.1087     1.9784     0.7873 H       
  37 H37           -8.8112     3.1864     2.4927 H       
  38 H38           -5.7395     0.2250     2.2612 H       
  39 H39           -1.6017    -2.9635     0.0309 H       
  40 H40           -2.8186    -4.2332    -0.2434 H       
  41 H41           -2.0604    -2.0920    -2.2804 H       
  42 H42           -1.2971    -5.0429    -2.1167 H       
  43 H43           -0.9096    -3.9435    -3.4620 H       
  44 H44           -0.1953    -3.6696    -1.8547 H       
  45 H45           -3.6881    -4.4847    -2.5147 H       
  46 H46            1.4255     2.8863     0.8970 H       
  47 H47            2.9685     2.0842     2.7436 H       
  48 H48            2.0966     0.4591     2.7661 H       
  49 H49            2.7262     0.0877     0.3371 H       
  50 H50            3.5980     1.7128     0.3146 H       
@<TRIPOS>BOND
   1    1    2 ar
   2    1   24 1
   3    1    6 ar
   4    2    3 ar
   5    3    4 ar
   6    3   31 1
   7    4    5 ar
   8    4    7 1
   9    5    6 ar
  10    5   32 1
  11    6   33 1
  12    7   15 2
  13    7   18 1
  14    8    9 1
  15    8   16 1
  16    8   34 1
  17    9   10 ar
  18    9   14 ar
  19   10   11 ar
  20   10   35 1
  21   11   12 ar
  22   11   36 1
  23   12   13 ar
  24   12   37 1
  25   13   14 ar
  26   13   22 1
  27   14   38 1
  28   15   16 1
  29   16   17 2
  30   17   18 1
  31   18   19 1
  32   19   20 1
  33   19   39 1
  34   19   40 1
  35   20   21 1
  36   20   23 1
  37   20   41 1
  38   21   42 1
  39   21   43 1
  40   21   44 1
  41   22   27 1
  42   23   45 1
  43   24   25 1
  44   24   26 1
  45   24   46 1
  46   25   26 1
  47   25   47 1
  48   25   48 1
  49   26   49 1
  50   26   50 1
  51   27   28 1
  52   27   29 1
  53   27   30 1

#	End of record

