#	Name: ASD01910460
#	Creating user name:	WinNT
#	Creation time:	15. 06. 2019 19:55

#	Modifying user name:	WinNT
#	Modification time:	15. 06. 2019 19:55

#	Program:	/corina/corina34_cracker 3.40 0067  02.08.2006

@<TRIPOS>MOLECULE
ASD01910460
  41   44    0    0    0
SMALL
NO_CHARGES


@<TRIPOS>ATOM
   1 C1            -0.8518     1.9265     1.0557 C.2     
   2 C2            -0.8684     0.4951     0.6909 C.2     
   3 N3            -1.8830    -0.3766     0.9003 N.2     
   4 C4            -1.4661    -1.5225     0.4234 C.2     
   5 O5            -0.2334    -1.3263    -0.0553 O.3     
   6 N6             0.0938    -0.1686     0.0986 N.2     
   7 C7            -2.2323    -2.8202     0.4162 C.3     
   8 C8            -2.4166    -3.2965    -1.0264 C.3     
   9 C9            -3.2229    -4.5973    -1.0369 C.3     
  10 C10           -2.4550    -5.6756    -0.2660 C.3     
  11 N11           -2.1468    -5.1674     1.0777 N.am    
  12 C12           -1.4531    -3.8783     1.2035 C.3     
  13 C13           -2.4939    -5.8703     2.1740 C.2     
  14 C14           -3.2645    -7.1230     2.0349 C.ar    
  15 O15           -2.1729    -5.4734     3.2774 O.2     
  16 C16           -2.8382    -8.1129     1.1470 C.ar    
  17 C17           -3.5606    -9.2801     1.0215 C.ar    
  18 C18           -4.7087    -9.4722     1.7749 C.ar    
  19 C19           -5.1367    -8.4923     2.6576 C.ar    
  20 C20           -4.4185    -7.3238     2.7952 C.ar    
  21 F21           -5.4131   -10.6180     1.6480 F       
  22 C22            0.1735     2.7745     0.8355 C.2     
  23 C23           -0.0441     4.0659     1.2647 C.2     
  24 C24           -1.2355     4.2811     1.8325 C.2     
  25 S25           -2.1691     2.7908     1.8378 S.3     
  26 H26           -3.2085    -2.6688     0.8769 H       
  27 H27           -2.9493    -2.5345    -1.5953 H       
  28 H28           -1.4403    -3.4709    -1.4788 H       
  29 H29           -4.1898    -4.4297    -0.5623 H       
  30 H30           -3.3738    -4.9235    -2.0659 H       
  31 H31           -3.0677    -6.5735    -0.1854 H       
  32 H32           -1.5280    -5.9091    -0.7898 H       
  33 H33           -0.4445    -3.9652     0.7996 H       
  34 H34           -1.4048    -3.5904     2.2537 H       
  35 H35           -1.9443    -7.9642     0.5594 H       
  36 H36           -3.2321   -10.0462     0.3348 H       
  37 H37           -6.0318    -8.6468     3.2418 H       
  38 H38           -4.7525    -6.5614     3.4833 H       
  39 H39            1.0930     2.4657     0.3606 H       
  40 H40            0.6934     4.8466     1.1510 H       
  41 H41           -1.5750     5.2284     2.2246 H       
@<TRIPOS>BOND
   1    1    2 1
   2    1   22 2
   3    1   25 1
   4    2    3 1
   5    2    6 2
   6    3    4 2
   7    4    5 1
   8    4    7 1
   9    5    6 1
  10    7    8 1
  11    7   12 1
  12    7   26 1
  13    8    9 1
  14    8   27 1
  15    8   28 1
  16    9   10 1
  17    9   29 1
  18    9   30 1
  19   10   11 1
  20   10   31 1
  21   10   32 1
  22   11   12 1
  23   11   13 am
  24   12   33 1
  25   12   34 1
  26   13   14 1
  27   13   15 2
  28   14   16 ar
  29   14   20 ar
  30   16   17 ar
  31   16   35 1
  32   17   18 ar
  33   17   36 1
  34   18   19 ar
  35   18   21 1
  36   19   20 ar
  37   19   37 1
  38   20   38 1
  39   22   23 1
  40   22   39 1
  41   23   24 2
  42   23   40 1
  43   24   25 1
  44   24   41 1

#	End of record

