#	Name: ASD02560407
#	Creating user name:	WinNT
#	Creation time:	15. 06. 2019 20:25

#	Modifying user name:	WinNT
#	Modification time:	15. 06. 2019 20:25

#	Program:	/corina/corina34_cracker 3.40 0067  02.08.2006

@<TRIPOS>MOLECULE
ASD02560407
  43   46    0    0    0
SMALL
NO_CHARGES


@<TRIPOS>ATOM
   1 C1             0.1370     1.3885     1.1096 C.2     
   2 C2             0.1580    -0.0177     1.0966 C.2     
   3 C3             1.2861    -0.6790     0.7696 C.2     
   4 N4             2.4265     0.0059     0.4457 N.pl3   
   5 C5             2.4361     1.3821     0.4497 C.2     
   6 C6             1.2604     2.0841     0.7906 C.2     
   7 C7             3.6782    -0.4088     0.0840 C.2     
   8 C8             4.4300     0.7281    -0.1264 C.2     
   9 N9             3.6443     1.7958     0.1046 N.2     
  10 C10            5.8538     0.7670    -0.5349 C.ar    
  11 N11            4.1118    -1.7285    -0.0464 N.3     
  12 C12            2.9885    -2.6666     0.0800 C.3     
  13 C13            3.3284    -3.9700    -0.6457 C.3     
  14 C14            6.3113     1.7763    -1.3813 C.ar    
  15 C15            2.7320    -2.9588     1.5598 C.3     
  16 C16            1.5620    -3.9359     1.6914 C.3     
  17 C17            1.9019    -5.2392     0.9657 C.3     
  18 C18            2.1584    -4.9470    -0.5141 C.3     
  19 C19            7.6384     1.8092    -1.7591 C.ar    
  20 C20            8.5159     0.8428    -1.2996 C.ar    
  21 C21            8.0673    -0.1638    -0.4575 C.ar    
  22 C22            6.7419    -0.2024    -0.0695 C.ar    
  23 Cl23          10.1836     0.8902    -1.7794 Cl      
  24 F24            8.9285    -1.1046    -0.0121 F       
  25 H25           -0.7704     1.9142     1.3679 H       
  26 H26           -0.7344    -0.5705     1.3504 H       
  27 H27            1.2905    -1.7590     0.7634 H       
  28 H28            1.2533     3.1641     0.7983 H       
  29 H29            4.5999    -1.8642    -0.9190 H       
  30 H30            2.0955    -2.2260    -0.3634 H       
  31 H31            3.5111    -3.7618    -1.6999 H       
  32 H32            4.2213    -4.4105    -0.2023 H       
  33 H33            5.6279     2.5312    -1.7412 H       
  34 H34            3.6250    -3.3993     2.0032 H       
  35 H35            2.4899    -2.0302     2.0768 H       
  36 H36            1.3793    -4.1440     2.7456 H       
  37 H37            0.6691    -3.4953     1.2480 H       
  38 H38            2.7949    -5.6798     1.4091 H       
  39 H39            1.0684    -5.9353     1.0595 H       
  40 H40            1.2654    -4.5065    -0.9575 H       
  41 H41            2.4005    -5.8756    -1.0311 H       
  42 H42            7.9927     2.5907    -2.4149 H       
  43 H43            6.3926    -0.9860     0.5866 H       
@<TRIPOS>BOND
   1    1    2 1
   2    1    6 2
   3    1   25 1
   4    2    3 2
   5    2   26 1
   6    3    4 1
   7    3   27 1
   8    4    5 1
   9    4    7 1
  10    5    6 1
  11    5    9 2
  12    6   28 1
  13    7    8 2
  14    7   11 1
  15    8    9 1
  16    8   10 1
  17   10   14 ar
  18   10   22 ar
  19   11   12 1
  20   11   29 1
  21   12   13 1
  22   12   15 1
  23   12   30 1
  24   13   18 1
  25   13   31 1
  26   13   32 1
  27   14   19 ar
  28   14   33 1
  29   15   16 1
  30   15   34 1
  31   15   35 1
  32   16   17 1
  33   16   36 1
  34   16   37 1
  35   17   18 1
  36   17   38 1
  37   17   39 1
  38   18   40 1
  39   18   41 1
  40   19   20 ar
  41   19   42 1
  42   20   21 ar
  43   20   23 1
  44   21   22 ar
  45   21   24 1
  46   22   43 1

#	End of record

