#	Name: ASD01948262
#	Creating user name:	WinNT
#	Creation time:	15. 06. 2019 20:14

#	Modifying user name:	WinNT
#	Modification time:	15. 06. 2019 20:14

#	Program:	/corina/corina34_cracker 3.40 0067  02.08.2006

@<TRIPOS>MOLECULE
ASD01948262
  43   46    0    0    0
SMALL
NO_CHARGES


@<TRIPOS>ATOM
   1 C1            -0.6746     3.7421     1.9275 C.ar    
   2 C2            -1.4810     3.8469     0.8078 C.ar    
   3 C3            -0.9272     4.1584    -0.4205 C.ar    
   4 C4             0.4340     4.3664    -0.5344 C.ar    
   5 C5             1.2473     4.2624     0.5859 C.ar    
   6 C6             0.6880     3.9488     1.8209 C.ar    
   7 C7             3.0567     2.0920     0.4081 C.ar    
   8 C8             3.5121     3.3939     0.6074 C.ar    
   9 N9             2.6251     4.4723     0.4736 N.pl3   
  10 C10            3.9205     1.0241     0.5372 C.ar    
  11 C11            5.2605     1.2482     0.8698 C.ar    
  12 C12            5.7194     2.5575     1.0710 C.ar    
  13 C13            4.8415     3.6281     0.9387 C.ar    
  14 N14            5.2965     4.9407     1.1388 N.am    
  15 I15           -3.5456     3.5321     0.9737 I       
  16 F16            3.4728    -0.2358     0.3431 F       
  17 F17            1.4754     3.8470     2.9140 F       
  18 F18            1.7613     1.8742     0.0923 F       
  19 O19            7.0336     2.4554     1.3737 O.3     
  20 C20            7.3658     1.1544     1.3597 C.2     
  21 N21            6.3302     0.4287     1.0643 N.2     
  22 S22            6.8089     5.2073     1.7585 S.o2    
  23 O23            6.8114     6.5880     2.0947 O.2     
  24 O24            6.9586     4.2094     2.7590 O.2     
  25 C25            7.9302     4.8886     0.3687 C.3     
  26 C26            9.4200     5.1606     0.5863 C.3     
  27 C27            8.9092     3.7207     0.5043 C.3     
  28 C28            7.3560     5.1719    -1.0209 C.3     
  29 C29            6.2417     4.1998    -1.3117 C.2     
  30 O30            5.1539     4.6089    -1.6400 O.2     
  31 H31           -1.1107     3.5030     2.8862 H       
  32 H32           -1.5597     4.2390    -1.2922 H       
  33 H33            0.8651     4.6093    -1.4944 H       
  34 H34            2.9676     5.3637     0.3032 H       
  35 H35            4.7252     5.6917     0.9140 H       
  36 H36            8.3529     0.7671     1.5647 H       
  37 H37            9.9912     5.5410    -0.2607 H       
  38 H38            9.7264     5.5310     1.5645 H       
  39 H39            8.8795     3.1439     1.4287 H       
  40 H40            9.1443     3.1538    -0.3965 H       
  41 H41            6.9677     6.1899    -1.0530 H       
  42 H42            8.1411     5.0588    -1.7685 H       
  43 H43            6.4159     3.1374    -1.2264 H       
@<TRIPOS>BOND
   1    1    2 ar
   2    1    6 ar
   3    1   31 1
   4    2    3 ar
   5    2   15 1
   6    3    4 ar
   7    3   32 1
   8    4    5 ar
   9    4   33 1
  10    5    6 ar
  11    5    9 1
  12    6   17 1
  13    7    8 ar
  14    7   10 ar
  15    7   18 1
  16    8    9 1
  17    8   13 ar
  18    9   34 1
  19   10   11 ar
  20   10   16 1
  21   11   12 ar
  22   11   21 1
  23   12   13 ar
  24   12   19 1
  25   13   14 1
  26   14   22 am
  27   14   35 1
  28   19   20 1
  29   20   21 2
  30   20   36 1
  31   22   23 2
  32   22   24 2
  33   22   25 1
  34   25   26 1
  35   25   28 1
  36   25   27 1
  37   26   27 1
  38   26   37 1
  39   26   38 1
  40   27   39 1
  41   27   40 1
  42   28   29 1
  43   28   41 1
  44   28   42 1
  45   29   30 2
  46   29   43 1

#	End of record

