#	Name: ASD01901606
#	Creating user name:	WinNT
#	Creation time:	15. 06. 2019 19:54

#	Modifying user name:	WinNT
#	Modification time:	15. 06. 2019 19:54

#	Program:	/corina/corina34_cracker 3.40 0067  02.08.2006

@<TRIPOS>MOLECULE
ASD01901606
  47   51    0    0    0
SMALL
NO_CHARGES


@<TRIPOS>ATOM
   1 F1             2.4050    -1.8246     1.2613 F       
   2 C2             3.2877    -1.3968     2.2588 C.3     
   3 F3             3.9108    -2.4580     2.9243 F       
   4 C4             4.2623    -0.3030     1.7914 C.3     
   5 C5             3.1971     0.7196     2.2210 C.3     
   6 C6             2.6849    -0.3452     3.2052 C.3     
   7 N7             3.7531     1.9058     2.8768 N.am    
   8 C8             3.0722     3.0687     2.8561 C.2     
   9 O9             2.0425     3.1590     2.2156 O.2     
  10 N10            3.5324     4.1315     3.5454 N.am    
  11 C11            4.7056     4.0172     4.4287 C.3     
  12 C12            4.3997     4.8057     5.7101 C.3     
  13 O13            4.1188     6.1629     5.3600 O.3     
  14 C14            3.2178     6.3878     4.3675 C.ar    
  15 C15            2.5998     7.6246     4.2713 C.ar    
  16 C16            1.6803     7.8644     3.2587 C.ar    
  17 N17            1.0572     9.1131     3.1629 N.pl3   
  18 C18            1.6838    10.2490     3.6848 C.2     
  19 N19            2.8895    10.3023     4.1855 N.2     
  20 N20            3.1755    11.6045     4.6083 N.pl3   
  21 H21            4.0079    11.8942     5.0133 H       
  22 C22            2.0925    12.4054     4.3587 C.ar    
  23 C23            1.8202    13.7570     4.5672 C.ar    
  24 C24            0.5859    14.2418     4.1818 C.ar    
  25 C25           -0.3398    13.3824     3.6044 C.ar    
  26 N26           -0.0676    12.1113     3.4154 N.ar    
  27 C27            1.1085    11.5939     3.7625 C.ar    
  28 C28            1.3785     6.8671     2.3406 C.ar    
  29 C29            1.9927     5.6322     2.4353 C.ar    
  30 C30            2.9121     5.3917     3.4417 C.ar    
  31 H31            5.1780    -0.2533     2.3806 H       
  32 H32            4.4488    -0.3142     0.7176 H       
  33 H33            2.4847     0.9649     1.4334 H       
  34 H34            1.5979    -0.3905     3.2727 H       
  35 H35            3.1693    -0.3070     4.1809 H       
  36 H36            4.6114     1.8542     3.3258 H       
  37 H37            4.8844     2.9700     4.6726 H       
  38 H38            5.5821     4.4379     3.9359 H       
  39 H39            3.5338     4.3704     6.2089 H       
  40 H40            5.2626     4.7711     6.3752 H       
  41 H41            2.8331     8.4018     4.9840 H       
  42 H42            0.1905     9.1911     2.7344 H       
  43 H43            2.5550    14.4073     5.0183 H       
  44 H44            0.3416    15.2835     4.3289 H       
  45 H45           -1.3035    13.7671     3.3050 H       
  46 H46            0.6640     7.0560     1.5531 H       
  47 H47            1.7584     4.8562     1.7217 H       
@<TRIPOS>BOND
   1    1    2 1
   2    2    6 1
   3    2    3 1
   4    2    4 1
   5    4    5 1
   6    4   31 1
   7    4   32 1
   8    5    6 1
   9    5    7 1
  10    5   33 1
  11    6   34 1
  12    6   35 1
  13    7    8 am
  14    7   36 1
  15    8    9 2
  16    8   10 am
  17   10   30 1
  18   10   11 1
  19   11   12 1
  20   11   37 1
  21   11   38 1
  22   12   13 1
  23   12   39 1
  24   12   40 1
  25   13   14 1
  26   14   30 ar
  27   14   15 ar
  28   15   16 ar
  29   15   41 1
  30   16   17 1
  31   16   28 ar
  32   17   18 1
  33   17   42 1
  34   18   27 1
  35   18   19 2
  36   19   20 1
  37   20   21 1
  38   20   22 1
  39   22   27 ar
  40   22   23 ar
  41   23   24 ar
  42   23   43 1
  43   24   25 ar
  44   24   44 1
  45   25   26 ar
  46   25   45 1
  47   26   27 ar
  48   28   29 ar
  49   28   46 1
  50   29   30 ar
  51   29   47 1

#	End of record

