#	Name: ASD03082302
#	Creating user name:	WinNT
#	Creation time:	15. 06. 2019 20:27

#	Modifying user name:	WinNT
#	Modification time:	15. 06. 2019 20:27

#	Program:	/corina/corina34_cracker 3.40 0067  02.08.2006

@<TRIPOS>MOLECULE
ASD03082302
  49   51    0    0    0
SMALL
NO_CHARGES


@<TRIPOS>ATOM
   1 N1            -0.0133     1.4275     0.0788 N.pl3   
   2 N2            -0.0358     0.0277    -0.0319 N.2     
   3 C3             1.1985    -0.3892     0.1359 C.2     
   4 N4             1.9889     0.6645     0.3443 N.2     
   5 C5             1.2730     1.7705     0.3130 C.2     
   6 N6             1.6156    -1.7212     0.1019 N.pl3   
   7 C7             2.9724    -2.0327     0.2368 C.ar    
   8 C8             3.8009    -1.2156     0.9952 C.ar    
   9 C9             5.1433    -1.5234     1.1283 C.ar    
  10 C10            5.6628    -2.6470     0.5058 C.ar    
  11 C11            4.8368    -3.4656    -0.2531 C.ar    
  12 C12            3.4906    -3.1618    -0.3827 C.ar    
  13 C13            1.7868     3.1457     0.5013 C.ar    
  14 C14           -1.1561     2.3361    -0.0420 C.3     
  15 C15            0.9260     4.1942     0.8426 C.ar    
  16 C16            1.4476     5.4610     1.0083 C.ar    
  17 N17            2.7370     5.6888     0.8493 N.ar    
  18 C18            3.5829     4.7288     0.5276 C.ar    
  19 C19            3.1478     3.4319     0.3484 C.ar    
  20 C20           -1.8008     2.5146     1.3083 C.2     
  21 N21           -2.8783     3.3134     1.4403 N.am    
  22 C22           -3.5051     3.4870     2.7530 C.3     
  23 O23           -1.3501     1.9395     2.2763 O.2     
  24 C24           -3.4227     4.0082     0.2710 C.3     
  25 C25            5.0451     5.0522     0.3594 C.3     
  26 F26            6.9737    -2.9460     0.6367 F       
  27 F27            5.9483    -0.7274     1.8656 F       
  28 O28            5.3471    -4.5676    -0.8641 O.3     
  29 C29            4.4398    -5.3642    -1.6286 C.3     
  30 H30            0.9645    -2.4306    -0.0152 H       
  31 H31            3.3972    -0.3396     1.4810 H       
  32 H32            2.8463    -3.8005    -0.9687 H       
  33 H33           -0.8142     3.3027    -0.4121 H       
  34 H34           -1.8819     1.9164    -0.7386 H       
  35 H35           -0.1309     4.0150     0.9741 H       
  36 H36            0.7910     6.2772     1.2715 H       
  37 H37            3.8459     2.6510     0.0851 H       
  38 H38           -3.0441     4.3304     3.2671 H       
  39 H39           -4.5705     3.6781     2.6245 H       
  40 H40           -3.3670     2.5817     3.3441 H       
  41 H41           -2.8296     3.7585    -0.6087 H       
  42 H42           -4.4557     3.6983     0.1127 H       
  43 H43           -3.3880     5.0845     0.4392 H       
  44 H44            5.5554     4.9352     1.3155 H       
  45 H45            5.4852     4.3749    -0.3725 H       
  46 H46            5.1524     6.0803     0.0137 H       
  47 H47            3.6435    -5.7307    -0.9809 H       
  48 H48            4.0095    -4.7595    -2.4270 H       
  49 H49            4.9745    -6.2098    -2.0612 H       
@<TRIPOS>BOND
   1    1    2 1
   2    1    5 1
   3    1   14 1
   4    2    3 2
   5    3    4 1
   6    3    6 1
   7    4    5 2
   8    5   13 1
   9    6    7 1
  10    6   30 1
  11    7    8 ar
  12    7   12 ar
  13    8    9 ar
  14    8   31 1
  15    9   10 ar
  16    9   27 1
  17   10   11 ar
  18   10   26 1
  19   11   12 ar
  20   11   28 1
  21   12   32 1
  22   13   15 ar
  23   13   19 ar
  24   14   20 1
  25   14   33 1
  26   14   34 1
  27   15   16 ar
  28   15   35 1
  29   16   17 ar
  30   16   36 1
  31   17   18 ar
  32   18   19 ar
  33   18   25 1
  34   19   37 1
  35   20   21 am
  36   20   23 2
  37   21   22 1
  38   21   24 1
  39   22   38 1
  40   22   39 1
  41   22   40 1
  42   24   41 1
  43   24   42 1
  44   24   43 1
  45   25   44 1
  46   25   45 1
  47   25   46 1
  48   28   29 1
  49   29   47 1
  50   29   48 1
  51   29   49 1

#	End of record

