#	Name: ASD03090798
#	Creating user name:	WinNT
#	Creation time:	15. 06. 2019 20:29

#	Modifying user name:	WinNT
#	Modification time:	15. 06. 2019 20:29

#	Program:	/corina/corina34_cracker 3.40 0067  02.08.2006

@<TRIPOS>MOLECULE
ASD03090798
  57   59    0    0    0
SMALL
NO_CHARGES


@<TRIPOS>ATOM
   1 C1            -0.0813     1.5169    -0.5463 C.ar    
   2 N2            -0.0135     0.2024    -0.4582 N.ar    
   3 C3            -1.0882    -0.5438    -0.2819 C.ar    
   4 C4            -2.3407     0.0301    -0.1815 C.ar    
   5 C5            -2.4581     1.4210    -0.2696 C.ar    
   6 C6            -1.2917     2.1722    -0.4514 C.ar    
   7 C7            -3.7793     2.0805    -0.1682 C.2     
   8 N8            -3.9919     3.3520     0.1054 N.2     
   9 C9            -5.3028     3.5969     0.1155 C.2     
  10 N10           -5.8938     4.8363     0.3690 N.pl3   
  11 C11           -5.1034     5.9207     0.7586 C.ar    
  12 C12           -5.4574     7.2093     0.3832 C.ar    
  13 C13           -3.5322     8.0664     1.5353 C.ar    
  14 C14           -3.1838     6.7832     1.9127 C.ar    
  15 C15           -3.9647     5.7111     1.5274 C.ar    
  16 C16           -4.6709     8.2823     0.7721 C.ar    
  17 O17           -5.0145     9.5451     0.4058 O.3     
  18 N18           -5.9484     2.4847    -0.1517 N.2     
  19 N19           -4.9802     1.4862    -0.3458 N.pl3   
  20 Cl20          -0.9252    -2.2689    -0.1752 Cl      
  21 C21            1.1816     2.3143    -0.7473 C.3     
  22 C22           -6.1990     9.6931    -0.3798 C.3     
  23 C23           -1.9462     6.5527     2.7411 C.3     
  24 F24           -1.3230     7.7784     2.9993 F       
  25 F25           -2.3009     5.9460     3.9507 F       
  26 F26           -1.0657     5.7199     2.0422 F       
  27 C27           -5.2236     0.0790    -0.6723 C.3     
  28 C28           -5.5595    -0.6907     0.6066 C.3     
  29 C29           -5.8510    -2.1522     0.2606 C.3     
  30 O30           -4.4334    -0.6250     1.5209 O.3     
  31 C31           -6.3076    -2.8930     1.5190 C.3     
  32 C32           -4.7108    -0.6678     2.8335 C.2     
  33 C33           -3.5932    -0.6044     3.8423 C.3     
  34 O34           -5.8567    -0.7571     3.2061 O.2     
  35 H35           -3.2160    -0.5860    -0.0376 H       
  36 H36           -1.3392     3.2487    -0.5243 H       
  37 H37           -6.8531     4.9446     0.2746 H       
  38 H38           -6.3438     7.3754    -0.2111 H       
  39 H39           -2.9195     8.9026     1.8382 H       
  40 H40           -3.6905     4.7095     1.8239 H       
  41 H41            1.3708     2.4323    -1.8142 H       
  42 H42            1.0683     3.2961    -0.2875 H       
  43 H43            2.0189     1.7912    -0.2854 H       
  44 H44           -7.0537     9.3063     0.1750 H       
  45 H45           -6.3577    10.7482    -0.6025 H       
  46 H46           -6.0889     9.1377    -1.3112 H       
  47 H47           -6.0583     0.0069    -1.3696 H       
  48 H48           -4.3306    -0.3477    -1.1292 H       
  49 H49           -6.4365    -0.2470     1.0779 H       
  50 H50           -6.6372    -2.1974    -0.4930 H       
  51 H51           -4.9471    -2.6207    -0.1289 H       
  52 H52           -5.5214    -2.8478     2.2726 H       
  53 H53           -7.2115    -2.4245     1.9085 H       
  54 H54           -6.5153    -3.9342     1.2725 H       
  55 H55           -3.0452     0.3298     3.7193 H       
  56 H56           -4.0090    -0.6519     4.8488 H       
  57 H57           -2.9168    -1.4453     3.6886 H       
@<TRIPOS>BOND
   1    1    2 ar
   2    1   21 1
   3    1    6 ar
   4    2    3 ar
   5    3    4 ar
   6    3   20 1
   7    4    5 ar
   8    4   35 1
   9    5    6 ar
  10    5    7 1
  11    6   36 1
  12    7    8 2
  13    7   19 1
  14    8    9 1
  15    9   10 1
  16    9   18 2
  17   10   11 1
  18   10   37 1
  19   11   12 ar
  20   11   15 ar
  21   12   16 ar
  22   12   38 1
  23   13   14 ar
  24   13   16 ar
  25   13   39 1
  26   14   15 ar
  27   14   23 1
  28   15   40 1
  29   16   17 1
  30   17   22 1
  31   18   19 1
  32   19   27 1
  33   21   41 1
  34   21   42 1
  35   21   43 1
  36   22   44 1
  37   22   45 1
  38   22   46 1
  39   23   24 1
  40   23   25 1
  41   23   26 1
  42   27   28 1
  43   27   47 1
  44   27   48 1
  45   28   29 1
  46   28   30 1
  47   28   49 1
  48   29   31 1
  49   29   50 1
  50   29   51 1
  51   30   32 1
  52   31   52 1
  53   31   53 1
  54   31   54 1
  55   32   33 1
  56   32   34 2
  57   33   55 1
  58   33   56 1
  59   33   57 1

#	End of record

