#	Name: ASD08170233
#	Creating user name:	WinNT
#	Creation time:	15. 06. 2019 21:17

#	Modifying user name:	WinNT
#	Modification time:	15. 06. 2019 21:17

#	Program:	/corina/corina34_cracker 3.40 0067  02.08.2006

@<TRIPOS>MOLECULE
ASD08170233
  91   94    0    0    0
SMALL
NO_CHARGES


@<TRIPOS>ATOM
   1 N1            -3.1152    -3.2764    -1.0140 N.2     
   2 N2            -2.5977    -4.3934    -1.2943 N.2     
   3 C3            -2.3511    -2.2274    -1.0672 C.2     
   4 S4            -0.7767    -2.7180    -1.5312 S.3     
   5 C5            -1.3419    -4.3870    -1.6113 C.2     
   6 C6            -0.5126    -5.5895    -1.9818 C.3     
   7 C7            -0.5829    -5.8111    -3.4941 C.3     
   8 C8             1.0045    -8.5480    -6.2794 C.3     
   9 C9             0.8338    -8.6298    -7.7745 C.2     
  10 N10            1.5829    -8.0557    -8.6615 N.2     
  11 S11           -0.4177    -9.5308    -8.6310 S.3     
  12 C12            0.2433    -8.9970   -10.1185 C.2     
  13 N13            1.2743    -8.2468    -9.8706 N.2     
  14 N14           -0.2407    -9.3178   -11.3823 N.am    
  15 C15            0.3704    -8.8325   -12.4811 C.2     
  16 O16            1.3425    -8.1161   -12.3679 O.2     
  17 C17           -0.1541    -9.1800   -13.8505 C.3     
  18 N18           -2.7458    -0.9223    -0.7933 N.am    
  19 C19           -1.1923    -8.1683   -14.2624 C.ar    
  20 C20           -4.0195    -0.6643    -0.4365 C.2     
  21 C21           -4.4472     0.7499    -0.1397 C.3     
  22 O22           -4.8216    -1.5703    -0.3541 O.2     
  23 C23           -4.9125     1.4114    -1.4113 C.ar    
  24 C24            0.2098    -7.3571    -5.7398 C.3     
  25 C25           -4.1095     2.3458    -2.0382 C.ar    
  26 C26           -0.8052    -6.8982   -14.6471 C.ar    
  27 C27           -6.1398     1.0796    -1.9540 C.ar    
  28 C28           -6.5666     1.6863    -3.1204 C.ar    
  29 C29           -5.7663     2.6252    -3.7440 C.ar    
  30 C30           -4.5363     2.9525    -3.2046 C.ar    
  31 C31           -1.7574    -5.9701   -15.0249 C.ar    
  32 C32           -3.0968    -6.3123   -15.0185 C.ar    
  33 C33           -3.4838    -7.5826   -14.6347 C.ar    
  34 C34           -2.5312    -8.5121   -14.2610 C.ar    
  35 N35           -5.5463     0.7349     0.8349 N.3     
  36 C36           -5.9948     2.0997     1.1440 C.3     
  37 C37           -7.1894     2.0373     2.0988 C.3     
  38 N38           -6.7980     1.3248     3.3230 N.3     
  39 C39           -6.3494    -0.0401     3.0139 C.3     
  40 C40           -5.1549     0.0223     2.0591 C.3     
  41 N41            0.9525    -9.1672   -14.8165 N.3     
  42 C42            0.4798    -9.5165   -16.1634 C.3     
  43 C43            2.0335   -10.0673   -14.3910 C.3     
  44 C44            1.6438    -9.4145   -17.1520 C.3     
  45 N45            2.7248   -10.3146   -16.7265 N.3     
  46 C46            3.1974    -9.9653   -15.3796 C.3     
  47 S47            0.4153    -7.2586    -3.9401 S.3     
  48 H48            0.5232    -5.4213    -1.6870 H       
  49 H49           -0.8985    -6.4695    -1.4673 H       
  50 H50           -1.6187    -5.9792    -3.7889 H       
  51 H51           -0.1970    -4.9311    -4.0086 H       
  52 H52            0.6384    -9.4667    -5.8211 H       
  53 H53            2.0601    -8.4185    -6.0408 H       
  54 H54           -1.0182    -9.8907   -11.4728 H       
  55 H55           -0.6037   -10.1727   -13.8262 H       
  56 H56           -2.1043    -0.1977    -0.8592 H       
  57 H57           -3.6045     1.3056     0.2716 H       
  58 H58            0.5759    -6.4383    -6.1981 H       
  59 H59           -0.8458    -7.4865    -5.9784 H       
  60 H60           -3.1488     2.6020    -1.6165 H       
  61 H61            0.2412    -6.6309   -14.6521 H       
  62 H62           -6.7651     0.3460    -1.4668 H       
  63 H63           -7.5252     1.4265    -3.5448 H       
  64 H64           -6.0996     3.0989    -4.6555 H       
  65 H65           -3.9110     3.6861    -3.6918 H       
  66 H66           -1.4551    -4.9776   -15.3248 H       
  67 H67           -3.8408    -5.5870   -15.3130 H       
  68 H68           -4.5302    -7.8498   -14.6294 H       
  69 H69           -2.8335    -9.5046   -13.9612 H       
  70 H70           -5.1815     2.6520     1.6147 H       
  71 H71           -6.2911     2.6024     0.2233 H       
  72 H72           -7.5055     3.0492     2.3523 H       
  73 H73           -8.0123     1.5087     1.6177 H       
  74 H74           -6.0868     1.8339     3.8260 H       
  75 H75           -6.0532    -0.5428     3.9346 H       
  76 H76           -7.1628    -0.5923     2.5431 H       
  77 H77           -4.8387    -0.9896     1.8056 H       
  78 H78           -4.3320     0.5509     2.5402 H       
  79 H79            0.0936   -10.5358   -16.1603 H       
  80 H80           -0.3114    -8.8283   -16.4610 H       
  81 H81            2.3750    -9.7806   -13.3963 H       
  82 H82            1.6649   -11.0928   -14.3678 H       
  83 H83            1.3023    -9.7012   -18.1467 H       
  84 H84            2.0124    -8.3890   -17.1752 H       
  85 H85            2.4298   -11.2786   -16.7675 H       
  86 H86            3.5837    -8.9460   -15.3826 H       
  87 H87            3.9886   -10.6535   -15.0820 H       
  88 Cl88           8.9886     8.6861     8.9346 Cl      
  89 H89            8.9886    10.0561     8.9346 H       
  90 Cl90          13.9886    15.0561    13.9346 Cl      
  91 H91           13.9886    16.4261    13.9346 H       
@<TRIPOS>BOND
   1    1    2 1
   2    1    3 2
   3    2    5 2
   4    3    4 1
   5    3   18 1
   6    4    5 1
   7    5    6 1
   8    6    7 1
   9    6   48 1
  10    6   49 1
  11    7   47 1
  12    7   50 1
  13    7   51 1
  14    8    9 1
  15    8   24 1
  16    8   52 1
  17    8   53 1
  18    9   10 2
  19    9   11 1
  20   10   13 1
  21   11   12 1
  22   12   13 2
  23   12   14 1
  24   14   15 am
  25   14   54 1
  26   15   16 2
  27   15   17 1
  28   17   19 1
  29   17   41 1
  30   17   55 1
  31   18   20 am
  32   18   56 1
  33   19   26 ar
  34   19   34 ar
  35   20   21 1
  36   20   22 2
  37   21   23 1
  38   21   35 1
  39   21   57 1
  40   23   25 ar
  41   23   27 ar
  42   24   47 1
  43   24   58 1
  44   24   59 1
  45   25   30 ar
  46   25   60 1
  47   26   31 ar
  48   26   61 1
  49   27   28 ar
  50   27   62 1
  51   28   29 ar
  52   28   63 1
  53   29   30 ar
  54   29   64 1
  55   30   65 1
  56   31   32 ar
  57   31   66 1
  58   32   33 ar
  59   32   67 1
  60   33   34 ar
  61   33   68 1
  62   34   69 1
  63   35   36 1
  64   35   40 1
  65   36   37 1
  66   36   70 1
  67   36   71 1
  68   37   38 1
  69   37   72 1
  70   37   73 1
  71   38   39 1
  72   38   74 1
  73   39   40 1
  74   39   75 1
  75   39   76 1
  76   40   77 1
  77   40   78 1
  78   41   42 1
  79   41   43 1
  80   42   44 1
  81   42   79 1
  82   42   80 1
  83   43   46 1
  84   43   81 1
  85   43   82 1
  86   44   45 1
  87   44   83 1
  88   44   84 1
  89   45   46 1
  90   45   85 1
  91   46   86 1
  92   46   87 1
  93   88   89 1
  94   90   91 1

#	End of record

