#	Name: ASD01001122
#	Creating user name:	WinNT
#	Creation time:	15. 06. 2019 18:55

#	Modifying user name:	WinNT
#	Modification time:	15. 06. 2019 18:55

#	Program:	/corina/corina34_cracker 3.40 0067  02.08.2006

@<TRIPOS>MOLECULE
ASD01001122
  40   42    0    0    0
SMALL
NO_CHARGES


@<TRIPOS>ATOM
   1 C1            -0.0161     1.3338     0.0094 C.2     
   2 C2             0.0021    -0.0041     0.0020 C.2     
   3 C3            -1.3323    -0.5755     0.0108 C.2     
   4 C4            -2.3245     0.3651     0.0250 C.2     
   5 S5            -1.6658     1.9351     0.0208 S.3     
   6 N6            -3.6799     0.0799     0.0356 N.am    
   7 C7            -4.5796     1.0832     0.0492 C.2     
   8 C8            -1.5905    -2.0184     0.0043 C.2     
   9 O9            -1.6880    -2.6239     1.0557 O.2     
  10 C10           -6.0134     0.7815     0.0605 C.2     
  11 C11            1.2250     2.2057     0.0022 C.3     
  12 C12            2.4300     1.3497     0.4014 C.3     
  13 C13            2.4400     0.0744    -0.4468 C.3     
  14 C14            1.2809    -0.8261    -0.0138 C.3     
  15 C15           -7.0186     1.7077     0.0747 C.2     
  16 C16           -8.2738     1.1474     0.0821 C.2     
  17 C17           -8.2984    -0.1907     0.0743 C.2     
  18 S18           -6.7167    -0.8300     0.0503 S.3     
  19 O19           -4.2012     2.2400     0.0522 O.2     
  20 N20           -1.7200    -2.6746    -1.1658 N.am    
  21 C21           -1.9781    -4.1166    -1.1722 C.3     
  22 C22           -1.6027    -1.9457    -2.4312 C.3     
  23 H23           -3.9815    -0.8420     0.0332 H       
  24 H24            1.3803     2.6121    -0.9972 H       
  25 H25            1.1031     3.0207     0.7156 H       
  26 H26            3.3487     1.9101     0.2281 H       
  27 H27            2.3561     1.0854     1.4563 H       
  28 H28            2.3251     0.3358    -1.4987 H       
  29 H29            3.3837    -0.4517    -0.3023 H       
  30 H30            1.4759    -1.2181     0.9844 H       
  31 H31            1.1762    -1.6511    -0.7185 H       
  32 H32           -6.8440     2.7734     0.0801 H       
  33 H33           -9.1743     1.7434     0.0937 H       
  34 H34           -9.1993    -0.7863     0.0788 H       
  35 H35           -3.0537    -4.2933    -1.1634 H       
  36 H36           -1.5446    -4.5593    -2.0690 H       
  37 H37           -1.5282    -4.5703    -0.2891 H       
  38 H38           -1.4121    -0.8921    -2.2273 H       
  39 H39           -0.7783    -2.3582    -3.0129 H       
  40 H40           -2.5304    -2.0447    -2.9948 H       
@<TRIPOS>BOND
   1    1    2 2
   2    1   11 1
   3    1    5 1
   4    2    3 1
   5    2   14 1
   6    3    4 2
   7    3    8 1
   8    4    5 1
   9    4    6 1
  10    6    7 am
  11    6   23 1
  12    7   10 1
  13    7   19 2
  14    8    9 2
  15    8   20 am
  16   10   15 2
  17   10   18 1
  18   11   12 1
  19   11   24 1
  20   11   25 1
  21   12   13 1
  22   12   26 1
  23   12   27 1
  24   13   14 1
  25   13   28 1
  26   13   29 1
  27   14   30 1
  28   14   31 1
  29   15   16 1
  30   15   32 1
  31   16   17 2
  32   16   33 1
  33   17   18 1
  34   17   34 1
  35   20   21 1
  36   20   22 1
  37   21   35 1
  38   21   36 1
  39   21   37 1
  40   22   38 1
  41   22   39 1
  42   22   40 1

#	End of record

