#	Name: ASD01901117
#	Creating user name:	WinNT
#	Creation time:	15. 06. 2019 19:53

#	Modifying user name:	WinNT
#	Modification time:	15. 06. 2019 19:53

#	Program:	/corina/corina34_cracker 3.40 0067  02.08.2006

@<TRIPOS>MOLECULE
ASD01901117
  24   26    0    0    0
SMALL
NO_CHARGES


@<TRIPOS>ATOM
   1 C1            -0.0163     1.3503     0.0095 C.ar    
   2 N2             0.0021    -0.0041     0.0020 N.2     
   3 C3             1.2414    -0.4275    -0.0121 C.2     
   4 N4             2.0965     0.6417    -0.0145 N.pl3   
   5 C5             1.3219     1.7837    -0.0010 C.ar    
   6 C6             1.6553    -1.8483    -0.0232 C.ar    
   7 N7             2.9465    -2.1582    -0.0367 N.ar    
   8 C8             3.3559    -3.4092    -0.0465 C.ar    
   9 C9             2.4483    -4.4542    -0.0430 C.ar    
  10 C10            1.0896    -4.1755    -0.0290 C.ar    
  11 C11            0.6866    -2.8508    -0.0136 C.ar    
  12 C12           -1.0459     2.2976     0.0295 C.ar    
  13 C13            1.6078     3.1423     0.0042 C.ar    
  14 C14            0.5760     4.0580     0.0197 C.ar    
  15 C15           -0.7455     3.6295     0.0321 C.ar    
  16 Cl16           0.9314     5.7573     0.0268 Cl      
  17 H17            3.0657     0.6036    -0.0239 H       
  18 H18            4.4144    -3.6232    -0.0578 H       
  19 H19            2.7948    -5.4771    -0.0515 H       
  20 H20            0.3622    -4.9739    -0.0260 H       
  21 H21           -0.3632    -2.5978     0.0019 H       
  22 H22           -2.0767     1.9757     0.0424 H       
  23 H23            2.6334     3.4808    -0.0034 H       
  24 H24           -1.5432     4.3573     0.0473 H       
@<TRIPOS>BOND
   1    1    2 1
   2    1    5 ar
   3    1   12 ar
   4    2    3 2
   5    3    4 1
   6    3    6 1
   7    4    5 1
   8    4   17 1
   9    5   13 ar
  10    6    7 ar
  11    6   11 ar
  12    7    8 ar
  13    8    9 ar
  14    8   18 1
  15    9   10 ar
  16    9   19 1
  17   10   11 ar
  18   10   20 1
  19   11   21 1
  20   12   15 ar
  21   12   22 1
  22   13   14 ar
  23   13   23 1
  24   14   15 ar
  25   14   16 1
  26   15   24 1

#	End of record

