#	Name: ASD08710051
#	Creating user name:	WinNT
#	Creation time:	15. 06. 2019 21:19

#	Modifying user name:	WinNT
#	Modification time:	15. 06. 2019 21:19

#	Program:	/corina/corina34_cracker 3.40 0067  02.08.2006

@<TRIPOS>MOLECULE
ASD08710051
  46   48    0    0    0
SMALL
NO_CHARGES


@<TRIPOS>ATOM
   1 C1            -0.3386     1.7501     0.6811 C.ar    
   2 C2            -0.2234     0.3818     0.5302 C.ar    
   3 C3             0.8014     2.5333     0.7895 C.ar    
   4 C4             2.0546     1.9398     0.7459 C.ar    
   5 C5             2.1644     0.5710     0.5949 C.ar    
   6 C6             1.0267    -0.2073     0.4871 C.ar    
   7 S7             1.1702    -1.9529     0.2945 S.o2    
   8 O8            -0.0326    -2.3885    -0.3241 O.2     
   9 O9             2.4582    -2.1912    -0.2566 O.2     
  10 N10            1.1815    -2.6143     1.8126 N.am    
  11 C11           -0.0740    -3.0129     2.4642 C.3     
  12 C12            2.4478    -2.8187     2.5300 C.3     
  13 C13            2.5481    -4.2942     2.9364 C.3     
  14 N14            1.2921    -4.6877     3.5902 N.am    
  15 C15            0.0316    -4.4880     2.8707 C.3     
  16 C16            1.3014    -5.2268     4.8254 C.2     
  17 C17            2.5838    -5.5467     5.4811 C.ar    
  18 O18            0.2529    -5.4496     5.3994 O.2     
  19 C19            2.7767    -5.2644     6.8346 C.ar    
  20 N20            3.9206    -5.5499     7.4205 N.ar    
  21 C21            4.9221    -6.1101     6.7556 C.ar    
  22 C22            4.7991    -6.4192     5.4023 C.ar    
  23 C23            3.6249    -6.1443     4.7546 C.ar    
  24 O24            0.6907     3.8797     0.9376 O.3     
  25 C25            1.9067     4.6229     1.0429 C.3     
  26 F26            2.6706     4.4335    -0.1137 F       
  27 F27            1.6110     5.9825     1.1891 F       
  28 F28            2.6288     4.1803     2.1564 F       
  29 N29            6.1066    -6.3914     7.4152 N.pl3   
  30 H30           -1.3152     2.2103     0.7103 H       
  31 H31           -1.1106    -0.2283     0.4462 H       
  32 H32            2.9435     2.5473     0.8297 H       
  33 H33            3.1398     0.1085     0.5605 H       
  34 H34           -0.2368    -2.3999     3.3507 H       
  35 H35           -0.9039    -2.8834     1.7695 H       
  36 H36            3.2830    -2.5611     1.8787 H       
  37 H37            2.4687    -2.1916     3.4213 H       
  38 H38            2.7068    -4.9079     2.0496 H       
  39 H39            3.3787    -4.4271     3.6296 H       
  40 H40           -0.8051    -4.7443     3.5205 H       
  41 H41            0.0140    -5.1183     1.9816 H       
  42 H42            1.9816    -4.8080     7.4053 H       
  43 H43            5.6211    -6.8753     4.8706 H       
  44 H44            3.5053    -6.3749     3.7064 H       
  45 H45            6.1996    -6.1787     8.3570 H       
  46 H46            6.8434    -6.8010     6.9354 H       
@<TRIPOS>BOND
   1    1    2 ar
   2    1    3 ar
   3    1   30 1
   4    2    6 ar
   5    2   31 1
   6    3    4 ar
   7    3   24 1
   8    4    5 ar
   9    4   32 1
  10    5    6 ar
  11    5   33 1
  12    6    7 1
  13    7    8 2
  14    7    9 2
  15    7   10 am
  16   10   11 1
  17   10   12 1
  18   11   15 1
  19   11   34 1
  20   11   35 1
  21   12   13 1
  22   12   36 1
  23   12   37 1
  24   13   14 1
  25   13   38 1
  26   13   39 1
  27   14   15 1
  28   14   16 am
  29   15   40 1
  30   15   41 1
  31   16   17 1
  32   16   18 2
  33   17   19 ar
  34   17   23 ar
  35   19   20 ar
  36   19   42 1
  37   20   21 ar
  38   21   22 ar
  39   21   29 1
  40   22   23 ar
  41   22   43 1
  42   23   44 1
  43   24   25 1
  44   25   26 1
  45   25   27 1
  46   25   28 1
  47   29   45 1
  48   29   46 1

#	End of record

