#	Name: ASD02408463
#	Creating user name:	WinNT
#	Creation time:	15. 06. 2019 20:21

#	Modifying user name:	WinNT
#	Modification time:	15. 06. 2019 20:21

#	Program:	/corina/corina34_cracker 3.40 0067  02.08.2006

@<TRIPOS>MOLECULE
ASD02408463
  48   50    0    0    0
SMALL
NO_CHARGES


@<TRIPOS>ATOM
   1 C1            -0.0170     1.3996     0.0097 C.2     
   2 C2             0.0021    -0.0041     0.0020 C.2     
   3 N3            -1.2944    -0.4097     0.0122 N.pl3   
   4 N4            -2.1112     0.7279     0.0261 N.2     
   5 C5            -1.3662     1.7992     0.0192 C.2     
   6 C6            -1.7587    -1.7992     0.0088 C.3     
   7 C7            -2.5923    -2.0615     1.2646 C.3     
   8 C8            -2.9725    -3.5423     1.3243 C.3     
   9 C9            -1.7508    -1.9066    -2.4874 C.3     
  10 C10           -2.6164    -2.0472    -1.2337 C.3     
  11 C11            1.2632     2.1062     0.0013 C.2     
  12 N12            2.3908     1.3575    -0.0135 N.am    
  13 N13            1.1833    -0.6426    -0.0131 N.2     
  14 S14            1.3332     3.8167     0.0093 S.2     
  15 C15            2.3126     0.0028    -0.0200 C.2     
  16 C16            3.5937    -0.7908    -0.0365 C.3     
  17 C17            3.2676    -2.2856    -0.0414 C.3     
  18 C18            4.5616    -3.0894    -0.1838 C.3     
  19 C19            4.2355    -4.5843    -0.1887 C.3     
  20 C20            3.5437    -4.9597     1.1233 C.3     
  21 C21            2.2496    -4.1558     1.2657 C.3     
  22 C22            2.5758    -2.6610     1.2706 C.3     
  23 H23           -1.7239     2.8182     0.0273 H       
  24 H24           -0.8992    -2.4694    -0.0034 H       
  25 H25           -2.0101    -1.8000     2.1483 H       
  26 H26           -3.4974    -1.4550     1.2332 H       
  27 H27           -3.5546    -3.8039     0.4407 H       
  28 H28           -2.0673    -4.1489     1.3557 H       
  29 H29           -3.5663    -3.7292     2.2190 H       
  30 H30           -2.3618    -2.0833    -3.3725 H       
  31 H31           -1.3328    -0.9008    -2.5293 H       
  32 H32           -0.9410    -2.6355    -2.4535 H       
  33 H33           -3.0344    -3.0530    -1.1917 H       
  34 H34           -3.4262    -1.3183    -1.2676 H       
  35 H35            3.2584     1.7912    -0.0198 H       
  36 H36            4.1646    -0.5405    -0.9306 H       
  37 H37            4.1816    -0.5501     0.8492 H       
  38 H38            2.6062    -2.5105    -0.8782 H       
  39 H39            5.0544    -2.8220    -1.1185 H       
  40 H40            5.2229    -2.8646     0.6529 H       
  41 H41            3.5741    -4.8091    -1.0255 H       
  42 H42            5.1574    -5.1569    -0.2902 H       
  43 H43            3.3113    -6.0246     1.1198 H       
  44 H44            4.2050    -4.7348     1.9600 H       
  45 H45            1.5883    -4.3807     0.4289 H       
  46 H46            1.7568    -4.4233     2.2004 H       
  47 H47            3.2371    -2.4362     2.1074 H       
  48 H48            1.6539    -2.0883     1.3720 H       
@<TRIPOS>BOND
   1    1    2 2
   2    1   11 1
   3    1    5 1
   4    2    3 1
   5    2   13 1
   6    3    4 1
   7    3    6 1
   8    4    5 2
   9    5   23 1
  10    6    7 1
  11    6   10 1
  12    6   24 1
  13    7    8 1
  14    7   25 1
  15    7   26 1
  16    8   27 1
  17    8   28 1
  18    8   29 1
  19    9   10 1
  20    9   30 1
  21    9   31 1
  22    9   32 1
  23   10   33 1
  24   10   34 1
  25   11   12 am
  26   11   14 2
  27   12   15 1
  28   12   35 1
  29   13   15 2
  30   15   16 1
  31   16   17 1
  32   16   36 1
  33   16   37 1
  34   17   18 1
  35   17   22 1
  36   17   38 1
  37   18   19 1
  38   18   39 1
  39   18   40 1
  40   19   20 1
  41   19   41 1
  42   19   42 1
  43   20   21 1
  44   20   43 1
  45   20   44 1
  46   21   22 1
  47   21   45 1
  48   21   46 1
  49   22   47 1
  50   22   48 1

#	End of record

