#	Name: ASD01410542
#	Creating user name:	WinNT
#	Creation time:	15. 06. 2019 19:18

#	Modifying user name:	WinNT
#	Modification time:	15. 06. 2019 19:18

#	Program:	/corina/corina34_cracker 3.40 0067  02.08.2006

@<TRIPOS>MOLECULE
ASD01410542
  87   90    0    0    0
SMALL
NO_CHARGES


@<TRIPOS>ATOM
   1 C1             5.2706     6.6097    -3.4490 C.ar    
   2 C2             5.6955     5.8154    -4.5122 C.ar    
   3 C3             6.3199     4.6059    -4.2445 C.ar    
   4 N4             6.5117     4.2067    -3.0018 N.ar    
   5 C5             6.1214     4.9351    -1.9694 C.ar    
   6 C6             5.4900     6.1572    -2.1599 C.ar    
   7 O7             6.3405     4.4828    -0.7083 O.3     
   8 C8             6.8673     3.2378    -0.5590 C.ar    
   9 C9             8.2414     3.0464    -0.6794 C.ar    
  10 C10            8.7862     1.7845    -0.5293 C.ar    
  11 C11            7.9655     0.7001    -0.2569 C.ar    
  12 C12            6.5797     0.8875    -0.1340 C.ar    
  13 C13            6.0383     2.1680    -0.2827 C.ar    
  14 F14            9.0460     4.0988    -0.9447 F       
  15 N15            8.5150    -0.5722    -0.1061 N.am    
  16 C16            8.8959    -1.0015     1.1134 C.2     
  17 C17            8.6785    -1.4425    -1.2731 C.3     
  18 O18            9.4524    -2.0724     1.2328 O.2     
  19 C19            8.6303    -0.1507     2.3286 C.3     
  20 N20            5.4944     6.2323    -5.8331 N.3     
  21 C21            9.7679    -0.3308     3.3358 C.3     
  22 C22            9.4983     0.5329     4.5695 C.3     
  23 C23            8.1765     0.1067     5.2115 C.3     
  24 C24            7.0389     0.2868     4.2043 C.3     
  25 C25            7.3085    -0.5769     2.9706 C.3     
  26 C26            7.9069     0.9704     6.4453 C.3     
  27 C27            7.9782    -0.8145    -2.4798 C.3     
  28 O28            6.5700    -0.7672    -2.2419 O.3     
  29 C29            5.8183    -0.1949    -3.3140 C.3     
  30 C30           10.1681    -1.6113    -1.5788 C.3     
  31 O31           10.7966    -2.3202    -0.5089 O.3     
  32 C32           12.1974    -2.5323    -0.6959 C.3     
  33 C33            6.0198     5.2418    -6.7840 C.3     
  34 O34            6.2956     7.0048    -8.4117 O.3     
  35 C35            5.8056     7.9944    -7.5029 C.3     
  36 C36            6.0998     7.5514    -6.0672 C.3     
  37 C37            5.7265     5.7080    -8.2124 C.3     
  38 C38            6.5004     9.3295    -7.7781 C.3     
  39 C39            6.3409     4.7219    -9.2080 C.3     
  40 C40            5.0492     6.9805    -0.9772 C.3     
  41 F41            4.4439     8.1583    -1.4285 F       
  42 F42            4.1332     6.2480    -0.2145 F       
  43 F43            6.1612     7.2995    -0.1906 F       
  44 C44            5.7010    -0.2583     0.1551 C.2     
  45 O45            6.1816    -1.3534     0.3712 O.2     
  46 O46            4.3637    -0.0924     0.1802 O.3     
  47 H47            4.7855     7.5582    -3.6269 H       
  48 H48            6.6524     3.9840    -5.0625 H       
  49 H49            9.8526     1.6429    -0.6247 H       
  50 H50            4.9731     2.3191    -0.1890 H       
  51 H51            8.2378    -2.4173    -1.0640 H       
  52 H52            8.5694     0.8966     2.0327 H       
  53 H53            9.8288    -1.3781     3.6317 H       
  54 H54           10.7096    -0.0272     2.8784 H       
  55 H55           10.3087     0.4046     5.2870 H       
  56 H56            9.4374     1.5802     4.2736 H       
  57 H57            8.2374    -0.9406     5.5074 H       
  58 H58            6.0972    -0.0169     4.6617 H       
  59 H59            6.9780     1.3341     3.9084 H       
  60 H60            6.4981    -0.4486     2.2531 H       
  61 H61            7.3694    -1.6242     3.2665 H       
  62 H62            7.8460     2.0177     6.1493 H       
  63 H63            6.9652     0.6668     6.9026 H       
  64 H64            8.7173     0.8421     7.1628 H       
  65 H65            8.3550     0.1968    -2.6328 H       
  66 H66            8.1767    -1.4145    -3.3679 H       
  67 H67            4.7592    -0.1954    -3.0560 H       
  68 H68            6.1503     0.8292    -3.4843 H       
  69 H69            5.9720    -0.7820    -4.2194 H       
  70 H70           10.2876    -2.1721    -2.5058 H       
  71 H71           10.6306    -0.6301    -1.6855 H       
  72 H72           12.5997    -3.0763     0.1586 H       
  73 H73           12.3589    -3.1121    -1.6047 H       
  74 H74           12.7019    -1.5701    -0.7844 H       
  75 H75            7.0967     5.1420    -6.6476 H       
  76 H76            5.5394     4.2791    -6.6094 H       
  77 H77            4.7298     8.1092    -7.6351 H       
  78 H78            5.6778     8.2746    -5.3694 H       
  79 H79            7.1779     7.4885    -5.9194 H       
  80 H80            4.6483     5.7563    -8.3653 H       
  81 H81            6.2938     9.6424    -8.8016 H       
  82 H82            6.1266    10.0833    -7.0852 H       
  83 H83            7.5759     9.2139    -7.6437 H       
  84 H84            5.9095     3.7330    -9.0531 H       
  85 H85            6.1317     5.0544   -10.2248 H       
  86 H86            7.4192     4.6760    -9.0554 H       
  87 H87            3.8280    -0.8737     0.3744 H       
@<TRIPOS>BOND
   1    1    2 ar
   2    1    6 ar
   3    1   47 1
   4    2    3 ar
   5    2   20 1
   6    3    4 ar
   7    3   48 1
   8    4    5 ar
   9    5    6 ar
  10    5    7 1
  11    6   40 1
  12    7    8 1
  13    8    9 ar
  14    8   13 ar
  15    9   10 ar
  16    9   14 1
  17   10   11 ar
  18   10   49 1
  19   11   12 ar
  20   11   15 1
  21   12   13 ar
  22   12   44 1
  23   13   50 1
  24   15   16 am
  25   15   17 1
  26   16   18 2
  27   16   19 1
  28   17   27 1
  29   17   30 1
  30   17   51 1
  31   19   21 1
  32   19   25 1
  33   19   52 1
  34   20   33 1
  35   20   36 1
  36   21   22 1
  37   21   53 1
  38   21   54 1
  39   22   23 1
  40   22   55 1
  41   22   56 1
  42   23   24 1
  43   23   26 1
  44   23   57 1
  45   24   25 1
  46   24   58 1
  47   24   59 1
  48   25   60 1
  49   25   61 1
  50   26   62 1
  51   26   63 1
  52   26   64 1
  53   27   28 1
  54   27   65 1
  55   27   66 1
  56   28   29 1
  57   29   67 1
  58   29   68 1
  59   29   69 1
  60   30   31 1
  61   30   70 1
  62   30   71 1
  63   31   32 1
  64   32   72 1
  65   32   73 1
  66   32   74 1
  67   33   37 1
  68   33   75 1
  69   33   76 1
  70   34   35 1
  71   34   37 1
  72   35   36 1
  73   35   38 1
  74   35   77 1
  75   36   78 1
  76   36   79 1
  77   37   39 1
  78   37   80 1
  79   38   81 1
  80   38   82 1
  81   38   83 1
  82   39   84 1
  83   39   85 1
  84   39   86 1
  85   40   41 1
  86   40   42 1
  87   40   43 1
  88   44   45 2
  89   44   46 1
  90   46   87 1

#	End of record

