#	Name: ASD01810924
#	Creating user name:	WinNT
#	Creation time:	15. 06. 2019 19:25

#	Modifying user name:	WinNT
#	Modification time:	15. 06. 2019 19:25

#	Program:	/corina/corina34_cracker 3.40 0067  02.08.2006

@<TRIPOS>MOLECULE
ASD01810924
  21   21    0    0    0
SMALL
NO_CHARGES


@<TRIPOS>ATOM
   1 C1            -0.0245     1.4719    -0.0622 C.2     
   2 C2            -0.0011    -0.0044    -0.0331 C.ar    
   3 C3             1.2138    -0.6884    -0.1185 C.ar    
   4 C4             1.2289    -2.0667    -0.0903 C.ar    
   5 C5             0.0428    -2.7731     0.0220 C.ar    
   6 C6            -1.1648    -2.1010     0.1071 C.ar    
   7 C7            -1.1929    -0.7223     0.0857 C.ar    
   8 O8             1.0177     2.0960    -0.0618 O.2     
   9 O9            -1.2015     2.1264    -0.0948 O.3     
  10 C10            2.5051     0.0786    -0.2417 C.3     
  11 C11            2.9532     0.5489     1.1435 C.3     
  12 Br12           0.0727    -4.6635     0.0587 Br      
  13 H13            2.1676    -2.5968    -0.1563 H       
  14 H14           -2.0862    -2.6575     0.1945 H       
  15 H15           -2.1350    -0.1991     0.1567 H       
  16 H16           -1.1662     3.0926    -0.1130 H       
  17 H17            3.2713    -0.5665    -0.6718 H       
  18 H18            2.3538     0.9435    -0.8877 H       
  19 H19            2.1871     1.1940     1.5737 H       
  20 H20            3.1045    -0.3160     1.7895 H       
  21 H21            3.8872     1.1036     1.0544 H       
@<TRIPOS>BOND
   1    1    2 1
   2    1    8 2
   3    1    9 1
   4    2    3 ar
   5    2    7 ar
   6    3    4 ar
   7    3   10 1
   8    4    5 ar
   9    4   13 1
  10    5    6 ar
  11    5   12 1
  12    6    7 ar
  13    6   14 1
  14    7   15 1
  15    9   16 1
  16   10   11 1
  17   10   17 1
  18   10   18 1
  19   11   19 1
  20   11   20 1
  21   11   21 1

#	End of record

