#	Name: ASD01903336
#	Creating user name:	WinNT
#	Creation time:	15. 06. 2019 19:54

#	Modifying user name:	WinNT
#	Modification time:	15. 06. 2019 19:54

#	Program:	/corina/corina34_cracker 3.40 0067  02.08.2006

@<TRIPOS>MOLECULE
ASD01903336
  39   42    0    0    0
SMALL
NO_CHARGES


@<TRIPOS>ATOM
   1 C1            -0.0234     1.3664     0.1891 C.ar    
   2 C2             0.0102    -0.0074     0.3043 C.ar    
   3 C3             1.2067    -0.6995     0.1548 C.ar    
   4 C4             2.3658    -0.0072    -0.1106 C.ar    
   5 C5             2.3293     1.3777    -0.2267 C.ar    
   6 C6             1.1413     2.0620    -0.0776 C.ar    
   7 S7             1.5173    -2.4330     0.2535 S.o2    
   8 N8             3.1423    -2.6379    -0.0146 N.am    
   9 S9             3.7371    -1.1072    -0.2548 S.o2    
  10 O10            4.1615    -1.0474    -1.6096 O.2     
  11 O11            4.5937    -0.8302     0.8446 O.2     
  12 O12            1.2805    -2.8090     1.6033 O.2     
  13 O13            0.8483    -3.0262    -0.8509 O.2     
  14 C14            3.8564    -3.8408    -0.0335 C.ar    
  15 C15            5.2241    -3.8328    -0.2751 C.ar    
  16 C16            5.9287    -5.0200    -0.2938 C.ar    
  17 C17            5.2700    -6.2220    -0.0710 C.ar    
  18 C18            3.9024    -6.2301     0.1706 C.ar    
  19 C19            3.1987    -5.0426     0.1950 C.ar    
  20 N20            5.9848    -7.4264    -0.0904 N.am    
  21 C21            5.4119    -8.5422    -0.5836 C.2     
  22 C22            6.1928    -9.7778    -0.6987 C.2     
  23 O23            4.2463    -8.5241    -0.9336 O.2     
  24 C24            5.7381   -10.9728    -1.1785 C.2     
  25 C25            6.8138   -11.8718    -1.1075 C.2     
  26 C26            7.8646   -11.1949    -0.5941 C.2     
  27 O27            7.4882    -9.9320    -0.3544 O.3     
  28 H28           -0.9573     1.8969     0.3024 H       
  29 H29           -0.9001    -0.5500     0.5126 H       
  30 H30            3.2386     1.9220    -0.4351 H       
  31 H31            1.1207     3.1379    -0.1696 H       
  32 H32            5.7363    -2.8980    -0.4488 H       
  33 H33            6.9921    -5.0138    -0.4821 H       
  34 H34            3.3902    -7.1650     0.3439 H       
  35 H35            2.1352    -5.0489     0.3833 H       
  36 H36            6.8922    -7.4574     0.2511 H       
  37 H37            4.7436   -11.1850    -1.5421 H       
  38 H38            6.8035   -12.9094    -1.4070 H       
  39 H39            8.8474   -11.6036    -0.4114 H       
@<TRIPOS>BOND
   1    1    2 ar
   2    1    6 ar
   3    1   28 1
   4    2    3 ar
   5    2   29 1
   6    3    4 ar
   7    3    7 1
   8    4    5 ar
   9    4    9 1
  10    5    6 ar
  11    5   30 1
  12    6   31 1
  13    7    8 am
  14    7   12 2
  15    7   13 2
  16    8    9 am
  17    8   14 1
  18    9   10 2
  19    9   11 2
  20   14   15 ar
  21   14   19 ar
  22   15   16 ar
  23   15   32 1
  24   16   17 ar
  25   16   33 1
  26   17   18 ar
  27   17   20 1
  28   18   19 ar
  29   18   34 1
  30   19   35 1
  31   20   21 am
  32   20   36 1
  33   21   22 1
  34   21   23 2
  35   22   24 2
  36   22   27 1
  37   24   25 1
  38   24   37 1
  39   25   26 2
  40   25   38 1
  41   26   27 1
  42   26   39 1

#	End of record

