#	Name: ASD07931732
#	Creating user name:	WinNT
#	Creation time:	15. 06. 2019 21:13

#	Modifying user name:	WinNT
#	Modification time:	15. 06. 2019 21:13

#	Program:	/corina/corina34_cracker 3.40 0067  02.08.2006

@<TRIPOS>MOLECULE
ASD07931732
  61   65    0    0    0
SMALL
NO_CHARGES


@<TRIPOS>ATOM
   1 C1             1.9430    -2.0971    -1.0489 C.2     
   2 C2             0.8461    -1.3008    -1.2341 C.2     
   3 C3             1.0344     0.1484    -1.3366 C.2     
   4 N4             2.2750     0.6588    -1.2485 N.am    
   5 C5             3.3628    -0.1635    -1.0599 C.2     
   6 C6             3.2125    -1.5125    -0.9618 C.2     
   7 C7             2.4999     2.1068    -1.3534 C.3     
   8 C8             3.5673     2.4986    -0.3208 C.3     
   9 N9             4.8000     1.7559    -0.6193 N.am    
  10 C10            4.7061     0.4493    -0.9639 C.2     
  11 C11            6.1057     2.4163    -0.5455 C.3     
  12 O12            0.0759     0.8840    -1.5006 O.2     
  13 N13           -0.4316    -1.8601    -1.3244 N.pl3   
  14 C14           -1.1013    -2.5281    -0.3314 C.2     
  15 C15           -1.2477    -1.8396    -2.4110 C.2     
  16 N16           -2.3544    -2.4629    -2.1110 N.2     
  17 C17           -2.2916    -2.8952    -0.8426 C.2     
  18 C18           -3.3676    -3.6598    -0.1155 C.3     
  19 O19            5.7049    -0.2064    -1.1893 O.2     
  20 C20            6.3910     2.8218     0.9019 C.3     
  21 C21            6.2680     1.5986     1.8373 C.3     
  22 C22            5.6319     2.1720     3.1234 C.3     
  23 C23            5.4458     3.6737     2.8128 C.3     
  24 O24            5.3873     3.7480     1.3717 O.3     
  25 C25            4.1609     4.1791     3.4167 C.ar    
  26 C26            4.1289     4.5810     4.7445 C.ar    
  27 C27            3.0158     4.2477     2.6472 C.ar    
  28 C28            1.8363     4.7111     3.2002 C.ar    
  29 C29            1.7999     5.1076     4.5253 C.ar    
  30 C30            2.9451     5.0456     5.2979 C.ar    
  31 C31            6.0974     3.6630    -1.4324 C.3     
  32 O32            5.2558     4.5190     5.5016 O.3     
  33 Cl33           0.3175     5.6895     5.2164 Cl      
  34 C34            5.1490     4.9490     6.8601 C.3     
  35 F35            4.2049     4.1603     7.5262 F       
  36 F36            6.3919     4.8196     7.4892 F       
  37 F37            4.7459     6.2882     6.8951 F       
  38 H38            1.8302    -3.1680    -0.9661 H       
  39 H39            4.0805    -2.1382    -0.8149 H       
  40 H40            2.8492     2.3536    -2.3560 H       
  41 H41            1.5722     2.6396    -1.1444 H       
  42 H42            3.7610     3.5695    -0.3827 H       
  43 H43            3.2195     2.2437     0.6802 H       
  44 H44            6.8797     1.7305    -0.8900 H       
  45 H45           -0.7428    -2.7224     0.6686 H       
  46 H46           -1.0189    -1.3838    -3.3629 H       
  47 H47           -3.2160    -4.7291    -0.2625 H       
  48 H48           -3.3210    -3.4292     0.9489 H       
  49 H49           -4.3440    -3.3741    -0.5067 H       
  50 H50            7.3844     3.2630     0.9828 H       
  51 H51            5.6192     0.8429     1.3945 H       
  52 H52            7.2518     1.1810     2.0513 H       
  53 H53            4.6686     1.6997     3.3164 H       
  54 H54            6.3012     2.0378     3.9731 H       
  55 H55            6.2936     4.2467     3.1882 H       
  56 H56            3.0419     3.9394     1.6125 H       
  57 H57            0.9421     4.7639     2.5968 H       
  58 H58            2.9168     5.3551     6.3322 H       
  59 H59            5.3234     4.3488    -1.0879 H       
  60 H60            7.0688     4.1544    -1.3774 H       
  61 H61            5.8941     3.3741    -2.4635 H       
@<TRIPOS>BOND
   1    1    2 2
   2    1    6 1
   3    1   38 1
   4    2    3 1
   5    2   13 1
   6    3    4 am
   7    3   12 2
   8    4    5 1
   9    4    7 1
  10    5    6 2
  11    5   10 1
  12    6   39 1
  13    7    8 1
  14    7   40 1
  15    7   41 1
  16    8    9 1
  17    8   42 1
  18    8   43 1
  19    9   10 am
  20    9   11 1
  21   10   19 2
  22   11   31 1
  23   11   20 1
  24   11   44 1
  25   13   14 1
  26   13   15 1
  27   14   17 2
  28   14   45 1
  29   15   16 2
  30   15   46 1
  31   16   17 1
  32   17   18 1
  33   18   47 1
  34   18   48 1
  35   18   49 1
  36   20   21 1
  37   20   24 1
  38   20   50 1
  39   21   22 1
  40   21   51 1
  41   21   52 1
  42   22   23 1
  43   22   53 1
  44   22   54 1
  45   23   24 1
  46   23   25 1
  47   23   55 1
  48   25   26 ar
  49   25   27 ar
  50   26   32 1
  51   26   30 ar
  52   27   28 ar
  53   27   56 1
  54   28   29 ar
  55   28   57 1
  56   29   30 ar
  57   29   33 1
  58   30   58 1
  59   31   59 1
  60   31   60 1
  61   31   61 1
  62   32   34 1
  63   34   35 1
  64   34   36 1
  65   34   37 1

#	End of record

