#	Name: ASD04910090
#	Creating user name:	WinNT
#	Creation time:	15. 06. 2019 20:55

#	Modifying user name:	WinNT
#	Modification time:	15. 06. 2019 20:55

#	Program:	/corina/corina34_cracker 3.40 0067  02.08.2006

@<TRIPOS>MOLECULE
ASD04910090
  28   28    0    0    0
SMALL
NO_CHARGES


@<TRIPOS>ATOM
   1 C1             0.0992     1.5213    -0.0620 C.3     
   2 C2             0.0002    -0.0041     0.0031 C.3     
   3 C3             0.7421    -0.5109     1.2415 C.3     
   4 C4             0.0278    -0.0175     2.5014 C.3     
   5 O5             1.4656     1.9031    -0.2330 O.3     
   6 C6             0.7628    -2.0407     1.2331 C.3     
   7 C7            -0.7134     2.0282    -1.2255 C.ar    
   8 C8            -1.9769     2.5469    -1.0121 C.ar    
   9 C9            -2.7224     3.0124    -2.0789 C.ar    
  10 C10           -2.2040     2.9591    -3.3602 C.ar    
  11 C11           -0.9397     2.4400    -3.5733 C.ar    
  12 C12           -0.1928     1.9796    -2.5052 C.ar    
  13 Br13          -3.2236     3.5952    -4.8202 Br      
  14 H14           -0.2848     1.9502     0.8636 H       
  15 H15           -1.0477    -0.2980     0.0617 H       
  16 H16            0.4492    -0.4358    -0.8914 H       
  17 H17            1.7646    -0.1336     1.2323 H       
  18 H18           -0.9948    -0.3948     2.5107 H       
  19 H19            0.5563    -0.3785     3.3837 H       
  20 H20            0.0130     1.0724     2.5074 H       
  21 H21            1.8731     1.5561    -1.0384 H       
  22 H22            1.3651    -2.4005     2.0673 H       
  23 H23           -0.2550    -2.4185     1.3304 H       
  24 H24            1.1931    -2.3931     0.2957 H       
  25 H25           -2.3817     2.5882    -0.0117 H       
  26 H26           -3.7096     3.4173    -1.9121 H       
  27 H27           -0.5347     2.3978    -4.5736 H       
  28 H28            0.7960     1.5781    -2.6710 H       
@<TRIPOS>BOND
   1    1    2 1
   2    1    5 1
   3    1    7 1
   4    1   14 1
   5    2    3 1
   6    2   15 1
   7    2   16 1
   8    3    4 1
   9    3    6 1
  10    3   17 1
  11    4   18 1
  12    4   19 1
  13    4   20 1
  14    5   21 1
  15    6   22 1
  16    6   23 1
  17    6   24 1
  18    7    8 ar
  19    7   12 ar
  20    8    9 ar
  21    8   25 1
  22    9   10 ar
  23    9   26 1
  24   10   11 ar
  25   10   13 1
  26   11   12 ar
  27   11   27 1
  28   12   28 1

#	End of record

