#	Name: ASD08150904
#	Creating user name:	WinNT
#	Creation time:	15. 06. 2019 21:16

#	Modifying user name:	WinNT
#	Modification time:	15. 06. 2019 21:16

#	Program:	/corina/corina34_cracker 3.40 0067  02.08.2006

@<TRIPOS>MOLECULE
ASD08150904
  45   49    0    0    0
SMALL
NO_CHARGES


@<TRIPOS>ATOM
   1 N1            -0.2715     1.4094     0.0618 N.2     
   2 C2            -0.6746     0.2766     0.5596 C.2     
   3 N3            -0.3422     0.2033     1.8796 N.pl3   
   4 C4             0.3055     1.3680     2.2059 C.ar    
   5 N5             0.8497     1.8604     3.3137 N.ar    
   6 C6             1.4175     3.0482     3.3116 C.ar    
   7 N7             1.4771     3.8034     2.2301 N.ar    
   8 C8             0.9601     3.3948     1.0759 C.ar    
   9 C9             0.3435     2.1331     1.0278 C.ar    
  10 N10            1.0270     4.1935    -0.0522 N.pl3   
  11 C11            1.6735     5.5064     0.0171 C.3     
  12 C12            2.1600     5.9095    -1.3763 C.3     
  13 N13            0.6006     9.7966     2.1279 N.ar    
  14 N14           -0.2543    10.6577     2.5507 N.ar    
  15 C15           -1.5655    10.4828     2.4635 C.ar    
  16 C16           -2.0829     9.3473     1.9050 C.ar    
  17 C17           -1.1734     8.3832     1.4311 C.ar    
  18 C18           -1.5994     7.1832     0.8405 C.ar    
  19 C19           -0.6778     6.2803     0.3968 C.ar    
  20 C20            0.6850     6.5272     0.5189 C.ar    
  21 C21            1.1455     7.6977     1.0955 C.ar    
  22 C22            0.2125     8.6521     1.5646 C.ar    
  23 C23            2.6002     7.9490     1.2198 C.ar    
  24 C24            3.1912     8.9998     0.5189 C.ar    
  25 C25            4.5486     9.2292     0.6395 C.ar    
  26 C26            5.3207     8.4169     1.4547 C.ar    
  27 C27            4.7381     7.3739     2.1513 C.ar    
  28 C28            3.3824     7.1392     2.0427 C.ar    
  29 F29            5.1237    10.2465    -0.0384 F       
  30 Cl30          -3.2948     6.8483     0.6762 Cl      
  31 H31           -1.1959    -0.4920     0.0083 H       
  32 H32           -0.5296    -0.5364     2.4784 H       
  33 H33            1.8504     3.4189     4.2290 H       
  34 H34            0.6460     3.8842    -0.8889 H       
  35 H35            2.5229     5.4576     0.6985 H       
  36 H36            2.8750     5.1712    -1.7393 H       
  37 H37            1.3106     5.9583    -2.0577 H       
  38 H38            2.6410     6.8863    -1.3247 H       
  39 H39           -2.2321    11.2455     2.8380 H       
  40 H40           -3.1496     9.1957     1.8302 H       
  41 H41           -1.0123     5.3588    -0.0564 H       
  42 H42            2.5896     9.6324    -0.1169 H       
  43 H43            6.3813     8.5987     1.5460 H       
  44 H44            5.3449     6.7439     2.7847 H       
  45 H45            2.9286     6.3270     2.5911 H       
@<TRIPOS>BOND
   1    1    2 2
   2    1    9 1
   3    2    3 1
   4    2   31 1
   5    3    4 1
   6    3   32 1
   7    4    5 ar
   8    4    9 ar
   9    5    6 ar
  10    6    7 ar
  11    6   33 1
  12    7    8 ar
  13    8    9 ar
  14    8   10 1
  15   10   11 1
  16   10   34 1
  17   11   12 1
  18   11   20 1
  19   11   35 1
  20   12   36 1
  21   12   37 1
  22   12   38 1
  23   13   14 ar
  24   13   22 ar
  25   14   15 ar
  26   15   16 ar
  27   15   39 1
  28   16   17 ar
  29   16   40 1
  30   17   18 ar
  31   17   22 ar
  32   18   19 ar
  33   18   30 1
  34   19   20 ar
  35   19   41 1
  36   20   21 ar
  37   21   22 ar
  38   21   23 1
  39   23   24 ar
  40   23   28 ar
  41   24   25 ar
  42   24   42 1
  43   25   26 ar
  44   25   29 1
  45   26   27 ar
  46   26   43 1
  47   27   28 ar
  48   27   44 1
  49   28   45 1

#	End of record

