#	Name: ASD03320204
#	Creating user name:	WinNT
#	Creation time:	15. 06. 2019 20:36

#	Modifying user name:	WinNT
#	Modification time:	15. 06. 2019 20:36

#	Program:	/corina/corina34_cracker 3.40 0067  02.08.2006

@<TRIPOS>MOLECULE
ASD03320204
  38   40    0    0    0
SMALL
NO_CHARGES


@<TRIPOS>ATOM
   1 C1            -0.0077     1.3439    -0.1946 C.ar    
   2 C2             0.0217    -0.0349     0.0276 C.ar    
   3 C3            -1.1528    -0.7589     0.0433 C.ar    
   4 C4            -2.3651    -0.1275    -0.1598 C.ar    
   5 C5            -2.4112     1.2473    -0.3823 C.ar    
   6 C6            -1.2308     1.9885    -0.3947 C.ar    
   7 C7             1.2495     2.1185    -0.2119 C.2     
   8 O8             1.2216     3.3185    -0.4055 O.2     
   9 N9             2.4278     1.4952    -0.0131 N.am    
  10 C10            3.6263     2.2106    -0.1264 C.ar    
  11 C11           -3.7148     1.9218    -0.5999 C.ar    
  12 C12            3.6864     3.5351     0.2865 C.ar    
  13 C13            4.8686     4.2398     0.1749 C.ar    
  14 C14            5.9962     3.6250    -0.3495 C.ar    
  15 C15            5.9368     2.3020    -0.7626 C.ar    
  16 C16            4.7568     1.5943    -0.6463 C.ar    
  17 O17            7.1599     4.3195    -0.4591 O.3     
  18 C18            8.2813     3.6241    -1.0079 C.3     
  19 F19            7.9756     3.1959    -2.3042 F       
  20 F20            9.3869     4.4804    -1.0482 F       
  21 F21            8.5791     2.5153    -0.2085 F       
  22 C22           -4.6313     1.4288    -1.5321 C.ar    
  23 N23           -5.7814     2.0601    -1.6942 N.ar    
  24 C24           -6.0677     3.1385    -0.9920 C.ar    
  25 N25           -5.2316     3.6364    -0.1027 N.ar    
  26 C26           -4.0621     3.0640     0.1258 C.ar    
  27 F27           -1.2684     3.3217    -0.6099 F       
  28 H28            0.9655    -0.5352     0.1870 H       
  29 H29           -1.1244    -1.8249     0.2148 H       
  30 H30           -3.2798    -0.7015    -0.1463 H       
  31 H31            2.4458     0.5510     0.2085 H       
  32 H32            2.8085     4.0140     0.6944 H       
  33 H33            4.9153     5.2700     0.4956 H       
  34 H34            6.8150     1.8241    -1.1711 H       
  35 H35            4.7109     0.5642    -0.9676 H       
  36 H36           -4.4037     0.5462    -2.1113 H       
  37 H37           -7.0166     3.6294    -1.1504 H       
  38 H38           -3.3822     3.4777     0.8560 H       
@<TRIPOS>BOND
   1    1    2 ar
   2    1    7 1
   3    1    6 ar
   4    2    3 ar
   5    2   28 1
   6    3    4 ar
   7    3   29 1
   8    4    5 ar
   9    4   30 1
  10    5    6 ar
  11    5   11 1
  12    6   27 1
  13    7    8 2
  14    7    9 am
  15    9   10 1
  16    9   31 1
  17   10   12 ar
  18   10   16 ar
  19   11   22 ar
  20   11   26 ar
  21   12   13 ar
  22   12   32 1
  23   13   14 ar
  24   13   33 1
  25   14   15 ar
  26   14   17 1
  27   15   16 ar
  28   15   34 1
  29   16   35 1
  30   17   18 1
  31   18   19 1
  32   18   20 1
  33   18   21 1
  34   22   23 ar
  35   22   36 1
  36   23   24 ar
  37   24   25 ar
  38   24   37 1
  39   25   26 ar
  40   26   38 1

#	End of record

