#	Name: ASD01901446
#	Creating user name:	WinNT
#	Creation time:	15. 06. 2019 19:53

#	Modifying user name:	WinNT
#	Modification time:	15. 06. 2019 19:53

#	Program:	/corina/corina34_cracker 3.40 0067  02.08.2006

@<TRIPOS>MOLECULE
ASD01901446
  44   47    0    0    0
SMALL
NO_CHARGES


@<TRIPOS>ATOM
   1 C1            -0.0168     1.3893     0.0097 C.ar    
   2 C2             1.1696     2.0934     0.0021 C.ar    
   3 C3             2.3788     1.4169    -0.0130 C.ar    
   4 C4             2.4022     0.0320    -0.0212 C.ar    
   5 C5             1.2201    -0.6801    -0.0142 C.ar    
   6 C6             0.0021    -0.0041     0.0020 C.ar    
   7 C7            -1.2718    -0.7657     0.0101 C.2     
   8 N8            -3.1802    -1.5350    -1.1478 N.2     
   9 C9            -2.0561    -0.8613    -1.1600 C.2     
  10 C10           -1.6993    -1.3891     1.1488 C.2     
  11 N11           -2.8740    -2.0808     1.1217 N.pl3   
  12 C12           -3.6099    -2.1458    -0.0334 C.2     
  13 C13           -3.5518    -2.7936     2.0737 C.2     
  14 C14           -4.6707    -3.2720     1.4892 C.2     
  15 N15           -4.6921    -2.8698     0.2151 N.2     
  16 C16           -5.7216    -4.1170     2.1621 C.3     
  17 O17           -5.3537    -4.3388     3.5250 O.3     
  18 C18           -6.1992    -5.0870     4.2773 C.ar    
  19 C19           -5.8989    -5.3327     5.6108 C.ar    
  20 N20           -7.3045    -5.5709     3.7351 N.ar    
  21 C21           -8.1537    -6.3029     4.4306 C.ar    
  22 C22           -7.9158    -6.5915     5.7599 C.ar    
  23 C23           -6.7699    -6.0976     6.3674 C.ar    
  24 F24            3.5384     2.1102    -0.0204 F       
  25 C25           -1.3313     2.1260     0.0325 C.3     
  26 O26           -1.0881     3.5342     0.0365 O.3     
  27 C27           -2.2755     4.3290     0.0577 C.3     
  28 H28            1.1559     3.1733     0.0077 H       
  29 H29            3.3469    -0.4913    -0.0334 H       
  30 H30            1.2391    -1.7599    -0.0212 H       
  31 H31           -1.7287    -0.3772    -2.0682 H       
  32 H32           -1.1156    -1.3350     2.0558 H       
  33 H33           -3.2486    -2.9448     3.0992 H       
  34 H34           -6.6813    -3.6016     2.1241 H       
  35 H35           -5.8026    -5.0742     1.6472 H       
  36 H36           -4.9977    -4.9327     6.0514 H       
  37 H37           -9.0463    -6.6809     3.9544 H       
  38 H38           -8.6162    -7.1914     6.3220 H       
  39 H39           -6.5626    -6.3049     7.4068 H       
  40 H40           -1.9122     1.8601    -0.8507 H       
  41 H41           -1.8866     1.8507     0.9291 H       
  42 H42           -2.8504     4.0994     0.9549 H       
  43 H43           -2.0057     5.3851     0.0595 H       
  44 H44           -2.8759     4.1088    -0.8249 H       
@<TRIPOS>BOND
   1    1    6 ar
   2    1    2 ar
   3    1   25 1
   4    2    3 ar
   5    2   28 1
   6    3    4 ar
   7    3   24 1
   8    4    5 ar
   9    4   29 1
  10    5    6 ar
  11    5   30 1
  12    6    7 1
  13    7   10 2
  14    7    9 1
  15    8    9 2
  16    8   12 1
  17    9   31 1
  18   10   11 1
  19   10   32 1
  20   11   13 1
  21   11   12 1
  22   12   15 2
  23   13   14 2
  24   13   33 1
  25   14   15 1
  26   14   16 1
  27   16   17 1
  28   16   34 1
  29   16   35 1
  30   17   18 1
  31   18   20 ar
  32   18   19 ar
  33   19   23 ar
  34   19   36 1
  35   20   21 ar
  36   21   22 ar
  37   21   37 1
  38   22   23 ar
  39   22   38 1
  40   23   39 1
  41   25   26 1
  42   25   40 1
  43   25   41 1
  44   26   27 1
  45   27   42 1
  46   27   43 1
  47   27   44 1

#	End of record

