#	Name: ASD03330539
#	Creating user name:	WinNT
#	Creation time:	15. 06. 2019 20:37

#	Modifying user name:	WinNT
#	Modification time:	15. 06. 2019 20:37

#	Program:	/corina/corina34_cracker 3.40 0067  02.08.2006

@<TRIPOS>MOLECULE
ASD03330539
  64   66    0    0    0
SMALL
NO_CHARGES


@<TRIPOS>ATOM
   1 C1            -0.0551     1.9982     1.7792 C.2     
   2 N2            -0.1422     0.7060     2.1940 N.pl3   
   3 C3             1.2216     2.1952     1.3486 C.2     
   4 N4             1.8885     1.0281     1.4874 N.2     
   5 C5             1.0761     0.1270     1.9888 C.2     
   6 C6             1.4232    -1.2798     2.2820 C.ar    
   7 C7             1.7766     3.4556     0.8245 C.2     
   8 O8             1.0726     4.4443     0.7472 O.2     
   9 C9             3.6161     4.7657    -0.0903 C.3     
  10 N10            3.0643     3.5126     0.4308 N.am    
  11 C11            3.3072     4.8765    -1.5847 C.3     
  12 C12            1.7970     4.7645    -1.8030 C.3     
  13 C13            3.7994     6.2272    -2.1085 C.3     
  14 C14            4.0163     3.7487    -2.3371 C.3     
  15 C15            5.1087     4.7818     0.1166 C.2     
  16 N16            5.7942     5.9353    -0.0097 N.am    
  17 O17            5.6932     3.7567     0.3969 O.2     
  18 C18            7.2536     5.9380     0.1183 C.3     
  19 C19           -1.3347     0.0762     2.7675 C.3     
  20 C20           -2.5498     0.4173     1.8991 C.3     
  21 C21           -3.1617     1.7352     2.3632 C.3     
  22 N22           -2.1299     2.6525     2.8509 N.3     
  23 C23           -1.1786     3.0021     1.7856 C.3     
  24 C24           -2.7315     3.8582     3.4361 C.3     
  25 C25            1.0670    -1.8495     3.5047 C.ar    
  26 C26            2.1058    -2.0485     1.3321 C.ar    
  27 C27            2.4270    -3.3663     1.6157 C.ar    
  28 C28            2.0741    -3.9191     2.8318 C.ar    
  29 C29            1.3938    -3.1635     3.7728 C.ar    
  30 Cl30           0.9567    -3.8697     5.2972 Cl      
  31 O31            2.4517    -1.5049     0.1365 O.3     
  32 C32            3.1466    -2.3492    -0.7834 C.3     
  33 H33            3.1671     5.6075     0.4369 H       
  34 H34            3.6257     2.7240     0.4924 H       
  35 H35            1.2918     5.5680    -1.2671 H       
  36 H36            1.5770     4.8434    -2.8677 H       
  37 H37            1.4464     3.8022    -1.4299 H       
  38 H38            4.8433     6.3672    -1.8278 H       
  39 H39            3.7089     6.2507    -3.1945 H       
  40 H40            3.1967     7.0260    -1.6763 H       
  41 H41            3.6657     2.7864    -1.9640 H       
  42 H42            3.7963     3.8276    -3.4017 H       
  43 H43            5.0922     3.8285    -2.1815 H       
  44 H44            5.3212     6.7638    -0.1854 H       
  45 H45            7.5323     5.5730     1.1068 H       
  46 H46            7.6863     5.2897    -0.6437 H       
  47 H47            7.6280     6.9532    -0.0130 H       
  48 H48           -1.1984    -1.0049     2.7948 H       
  49 H49           -1.4934     0.4501     3.7790 H       
  50 H50           -2.2375     0.5091     0.8588 H       
  51 H51           -3.2913    -0.3769     1.9853 H       
  52 H52           -3.6870     2.1991     1.5284 H       
  53 H53           -3.8721     1.5366     3.1657 H       
  54 H54           -0.7762     3.9984     1.9688 H       
  55 H55           -1.6880     2.9851     0.8221 H       
  56 H56           -3.3716     3.5759     4.2719 H       
  57 H57           -1.9431     4.5222     3.7904 H       
  58 H58           -3.3261     4.3711     2.6801 H       
  59 H59            0.5366    -1.2632     4.2405 H       
  60 H60            2.9537    -3.9622     0.8850 H       
  61 H61            2.3263    -4.9467     3.0483 H       
  62 H62            3.3624    -1.7929    -1.6955 H       
  63 H63            4.0807    -2.6856    -0.3334 H       
  64 H64            2.5269    -3.2133    -1.0229 H       
@<TRIPOS>BOND
   1    1    2 1
   2    1    3 2
   3    1   23 1
   4    2   19 1
   5    2    5 1
   6    3    4 1
   7    3    7 1
   8    4    5 2
   9    5    6 1
  10    6   25 ar
  11    6   26 ar
  12    7    8 2
  13    7   10 am
  14    9   10 1
  15    9   11 1
  16    9   15 1
  17    9   33 1
  18   10   34 1
  19   11   12 1
  20   11   13 1
  21   11   14 1
  22   12   35 1
  23   12   36 1
  24   12   37 1
  25   13   38 1
  26   13   39 1
  27   13   40 1
  28   14   41 1
  29   14   42 1
  30   14   43 1
  31   15   16 am
  32   15   17 2
  33   16   18 1
  34   16   44 1
  35   18   45 1
  36   18   46 1
  37   18   47 1
  38   19   20 1
  39   19   48 1
  40   19   49 1
  41   20   21 1
  42   20   50 1
  43   20   51 1
  44   21   22 1
  45   21   52 1
  46   21   53 1
  47   22   23 1
  48   22   24 1
  49   23   54 1
  50   23   55 1
  51   24   56 1
  52   24   57 1
  53   24   58 1
  54   25   29 ar
  55   25   59 1
  56   26   27 ar
  57   26   31 1
  58   27   28 ar
  59   27   60 1
  60   28   29 ar
  61   28   61 1
  62   29   30 1
  63   31   32 1
  64   32   62 1
  65   32   63 1
  66   32   64 1

#	End of record

