#	Name: ASD03430435
#	Creating user name:	WinNT
#	Creation time:	15. 06. 2019 20:41

#	Modifying user name:	WinNT
#	Modification time:	15. 06. 2019 20:41

#	Program:	/corina/corina34_cracker 3.40 0067  02.08.2006

@<TRIPOS>MOLECULE
ASD03430435
  40   41    0    0    0
SMALL
NO_CHARGES


@<TRIPOS>ATOM
   1 O1            -0.0161     1.3380     0.0094 O.3     
   2 C2             0.0021    -0.0041     0.0020 C.2     
   3 N3             1.2787    -0.4360    -0.0125 N.am    
   4 C4             2.1026     0.6918    -0.0143 C.ar    
   5 C5             1.2577     1.8017    -0.0003 C.ar    
   6 C6             3.4773     0.8643    -0.0261 C.ar    
   7 C7             4.0113     2.1384    -0.0240 C.ar    
   8 C8             3.1735     3.2450    -0.0100 C.ar    
   9 C9             1.7978     3.0777     0.0018 C.ar    
  10 O10           -0.9811    -0.7196     0.0079 O.2     
  11 C11            1.7211    -1.8325    -0.0238 C.3     
  12 O12            3.7040     4.4969    -0.0075 O.3     
  13 Si13           3.9495     5.1164    -1.4962 Si      
  14 C14            5.1272     4.0221    -2.4377 C.3     
  15 C15            2.3263     5.2091    -2.4057 C.3     
  16 C16            4.6755     6.8255    -1.3457 C.3     
  17 C17            6.0087     6.7493    -0.5988 C.3     
  18 C18            4.9058     7.4066    -2.7422 C.3     
  19 C19            3.7084     7.7242    -0.5725 C.3     
  20 H20            4.1303     0.0042    -0.0366 H       
  21 H21            5.0828     2.2737    -0.0328 H       
  22 H22            1.1479     3.9402     0.0125 H       
  23 H23            0.8511    -2.4893    -0.0191 H       
  24 H24            2.3124    -2.0191    -0.9202 H       
  25 H25            2.3288    -2.0283     0.8596 H       
  26 H26            4.7024     3.0221    -2.5258 H       
  27 H27            5.2913     4.4361    -3.4326 H       
  28 H28            6.0770     3.9679    -1.9056 H       
  29 H29            1.6372     5.8493    -1.8548 H       
  30 H30            2.4903     5.6231    -3.4005 H       
  31 H31            1.9015     4.2091    -2.4937 H       
  32 H32            6.6977     6.1091    -1.1496 H       
  33 H33            6.4334     7.7493    -0.5107 H       
  34 H34            5.8446     6.3353     0.3961 H       
  35 H35            3.9561     7.4608    -3.2743 H       
  36 H36            5.3306     8.4065    -2.6541 H       
  37 H37            5.5949     6.7663    -3.2930 H       
  38 H38            3.5443     7.3102     0.4224 H       
  39 H39            4.1331     8.7241    -0.4844 H       
  40 H40            2.7586     7.7784    -1.1046 H       
@<TRIPOS>BOND
   1    1    2 1
   2    1    5 1
   3    2    3 am
   4    2   10 2
   5    3    4 1
   6    3   11 1
   7    4    5 ar
   8    4    6 ar
   9    5    9 ar
  10    6    7 ar
  11    6   20 1
  12    7    8 ar
  13    7   21 1
  14    8    9 ar
  15    8   12 1
  16    9   22 1
  17   11   23 1
  18   11   24 1
  19   11   25 1
  20   12   13 1
  21   13   14 1
  22   13   15 1
  23   13   16 1
  24   14   26 1
  25   14   27 1
  26   14   28 1
  27   15   29 1
  28   15   30 1
  29   15   31 1
  30   16   17 1
  31   16   19 1
  32   16   18 1
  33   17   32 1
  34   17   33 1
  35   17   34 1
  36   18   35 1
  37   18   36 1
  38   18   37 1
  39   19   38 1
  40   19   39 1
  41   19   40 1

#	End of record

