#	Name: ASD03240487
#	Creating user name:	WinNT
#	Creation time:	15. 06. 2019 20:35

#	Modifying user name:	WinNT
#	Modification time:	15. 06. 2019 20:35

#	Program:	/corina/corina34_cracker 3.40 0067  02.08.2006

@<TRIPOS>MOLECULE
ASD03240487
  46   49    0    0    0
SMALL
NO_CHARGES


@<TRIPOS>ATOM
   1 C1            -0.0686     1.4771     0.0646 C.ar    
   2 C2             2.2966     2.5302    -2.2526 C.ar    
   3 C3             1.3932     2.9270    -1.2833 C.ar    
   4 C4             1.2796     2.1475     0.0014 C.3     
   5 C5             2.4048     3.2407    -3.4310 C.ar    
   6 C6             1.6020     4.3592    -3.6432 C.ar    
   7 C7             0.6941     4.7547    -2.6635 C.ar    
   8 C8             0.5941     4.0371    -1.4887 C.ar    
   9 C9             1.7143     5.1275    -4.9087 C.2     
  10 C10            0.9937     6.2360    -5.2455 C.2     
  11 N11            1.3963     6.6273    -6.4713 N.pl3   
  12 N12            2.3899     5.7431    -6.9085 N.2     
  13 C13            2.5884     4.8483    -5.9772 C.2     
  14 C14           -0.1601     0.1015    -0.0463 C.ar    
  15 C15           -1.3924    -0.5176     0.0114 C.ar    
  16 C16            1.4304     3.0840     1.1723 C.2     
  17 N17            1.3632     2.6059     2.4307 N.am    
  18 C18            1.5097     3.5164     3.5690 C.3     
  19 C19           -2.5452     0.2457     0.1817 C.ar    
  20 C20           -2.4474     1.6308     0.2929 C.ar    
  21 C21           -1.2096     2.2393     0.2391 C.ar    
  22 C22           -3.8735    -0.4147     0.2440 C.2     
  23 O23            1.6122     4.2680     0.9824 O.2     
  24 C24           -4.1207    -1.7979     0.1465 C.2     
  25 N25           -5.4097    -1.9879     0.2465 N.2     
  26 N26           -6.0313    -0.7441     0.4104 N.pl3   
  27 C27           -5.0761     0.2074     0.4121 C.2     
  28 H28            2.9217     1.6655    -2.0852 H       
  29 H29            2.0635     1.3910     0.0379 H       
  30 H30            3.1107     2.9302    -4.1870 H       
  31 H31            0.0696     5.6213    -2.8229 H       
  32 H32           -0.1097     4.3427    -0.7287 H       
  33 H33            0.2377     6.7136    -4.6399 H       
  34 H34            1.0561     7.3898    -6.9652 H       
  35 H35            3.2948     4.0326    -6.0218 H       
  36 H36            0.7342    -0.4893    -0.1787 H       
  37 H37           -1.4628    -1.5918    -0.0757 H       
  38 H38            1.2177     1.6590     2.5826 H       
  39 H39            1.4275     2.9525     4.4982 H       
  40 H40            2.4849     4.0013     3.5232 H       
  41 H41            0.7258     4.2729     3.5325 H       
  42 H42           -3.3380     2.2272     0.4250 H       
  43 H43           -1.1326     3.3131     0.3252 H       
  44 H44           -3.3749    -2.5674     0.0121 H       
  45 H45           -6.9844    -0.5934     0.5096 H       
  46 H46           -5.2348     1.2702     0.5200 H       
@<TRIPOS>BOND
   1    1   14 ar
   2    1    4 1
   3    1   21 ar
   4    2    3 ar
   5    2    5 ar
   6    2   28 1
   7    3    4 1
   8    3    8 ar
   9    4   16 1
  10    4   29 1
  11    5    6 ar
  12    5   30 1
  13    6    7 ar
  14    6    9 1
  15    7    8 ar
  16    7   31 1
  17    8   32 1
  18    9   10 2
  19    9   13 1
  20   10   11 1
  21   10   33 1
  22   11   12 1
  23   11   34 1
  24   12   13 2
  25   13   35 1
  26   14   15 ar
  27   14   36 1
  28   15   19 ar
  29   15   37 1
  30   16   17 am
  31   16   23 2
  32   17   18 1
  33   17   38 1
  34   18   39 1
  35   18   40 1
  36   18   41 1
  37   19   20 ar
  38   19   22 1
  39   20   21 ar
  40   20   42 1
  41   21   43 1
  42   22   24 1
  43   22   27 2
  44   24   25 2
  45   24   44 1
  46   25   26 1
  47   26   27 1
  48   26   45 1
  49   27   46 1

#	End of record

