#	Name: ASD02120001
#	Creating user name:	WinNT
#	Creation time:	15. 06. 2019 20:18

#	Modifying user name:	WinNT
#	Modification time:	15. 06. 2019 20:18

#	Program:	/corina/corina34_cracker 3.40 0067  02.08.2006

@<TRIPOS>MOLECULE
ASD02120001
  68   71    0    0    0
SMALL
NO_CHARGES


@<TRIPOS>ATOM
   1 N1             0.2682     0.4564     1.9065 N.1     
   2 C2            -0.7391     0.8610     2.2415 C.1     
   3 C3            -2.0088     1.3710     2.6639 C.ar    
   4 C4            -2.2340     1.6641     4.0102 C.ar    
   5 C5            -3.4596     2.1556     4.4102 C.ar    
   6 C6            -4.4641     2.3578     3.4808 C.ar    
   7 C7            -4.2476     2.0695     2.1447 C.ar    
   8 C8            -3.0253     1.5830     1.7302 C.ar    
   9 S9            -2.7517     1.2170     0.0285 S.o     
  10 O10           -3.2672    -0.1007    -0.1020 O.2     
  11 N11           -3.8917     2.1407    -0.7392 N.am    
  12 C12           -3.5897     3.5159    -1.1671 C.3     
  13 C13           -3.9912     3.6635    -2.6391 C.3     
  14 O14           -5.3435     3.2299    -2.8039 O.3     
  15 C15           -5.5578     1.8509    -2.4937 C.3     
  16 C16           -5.2347     1.6085    -1.0192 C.3     
  17 C17           -7.0190     1.4872    -2.7650 C.3     
  18 N18           -7.2945     1.6088    -4.1987 N.am    
  19 C19           -8.5259     1.3362    -4.6738 C.2     
  20 O20           -9.4060     0.9902    -3.9145 O.2     
  21 C21           -8.8092     1.4614    -6.1487 C.3     
  22 N22          -10.2083     1.1131    -6.4084 N.am    
  23 C23          -10.5763     0.6634    -7.6245 C.2     
  24 O24           -9.7463     0.5467    -8.5068 O.2     
  25 C25          -11.9769     0.3148    -7.8845 C.2     
  26 C26          -12.4822    -0.1499    -9.0648 C.2     
  27 C27          -13.8569    -0.3504    -8.8641 C.2     
  28 C28          -14.1270    -0.0037    -7.5863 C.2     
  29 O29          -12.9907     0.3916    -6.9977 O.3     
  30 C30           -8.5502     2.9010    -6.5974 C.3     
  31 C31           -8.7169     2.9999    -8.1151 C.3     
  32 C32           -8.5810     4.4608    -8.5489 C.3     
  33 C33           -8.7477     4.5597   -10.0666 C.3     
  34 C34           -7.6683     3.7211   -10.7539 C.3     
  35 C35           -7.8042     2.2602   -10.3201 C.3     
  36 C36           -7.6375     2.1613    -8.8024 C.3     
  37 H37           -1.4509     1.5060     4.7370 H       
  38 H38           -3.6352     2.3827     5.4514 H       
  39 H39           -5.4218     2.7422     3.7994 H       
  40 H40           -5.0362     2.2294     1.4244 H       
  41 H41           -4.1557     4.2221    -0.5596 H       
  42 H42           -2.5226     3.7088    -1.0565 H       
  43 H43           -3.9051     4.7085    -2.9370 H       
  44 H44           -3.3349     3.0523    -3.2586 H       
  45 H45           -4.9072     1.2331    -3.1126 H       
  46 H46           -5.2586     0.5392    -0.8091 H       
  47 H47           -5.9649     2.1224    -0.3941 H       
  48 H48           -7.2035     0.4616    -2.4453 H       
  49 H49           -7.6705     2.1632    -2.2112 H       
  50 H50           -6.5906     1.8856    -4.8060 H       
  51 H51           -8.1577     0.7854    -6.7024 H       
  52 H52          -10.8699     1.2062    -5.7051 H       
  53 H53          -11.9310    -0.3283    -9.9763 H       
  54 H54          -14.5655    -0.7136    -9.5938 H       
  55 H55          -15.0984    -0.0423    -7.1160 H       
  56 H56           -9.2617     3.5672    -6.1095 H       
  57 H57           -7.5355     3.1898    -6.3237 H       
  58 H58           -9.7015     2.6271    -8.3975 H       
  59 H59           -9.3500     5.0583    -8.0592 H       
  60 H60           -7.5965     4.8336    -8.2664 H       
  61 H61           -9.7323     4.1869   -10.3490 H       
  62 H62           -8.6509     5.6005   -10.3756 H       
  63 H63           -7.7871     3.7916   -11.8351 H       
  64 H64           -6.6838     4.0939   -10.4715 H       
  65 H65           -8.7888     1.8874   -10.6026 H       
  66 H66           -7.0352     1.6627   -10.8098 H       
  67 H67           -6.6530     2.5341    -8.5200 H       
  68 H68           -7.7343     1.1205    -8.4934 H       
@<TRIPOS>BOND
   1    1    2 3
   2    2    3 1
   3    3    4 ar
   4    3    8 ar
   5    4    5 ar
   6    4   37 1
   7    5    6 ar
   8    5   38 1
   9    6    7 ar
  10    6   39 1
  11    7    8 ar
  12    7   40 1
  13    8    9 1
  14    9   10 2
  15    9   11 am
  16   11   12 1
  17   11   16 1
  18   12   13 1
  19   12   41 1
  20   12   42 1
  21   13   14 1
  22   13   43 1
  23   13   44 1
  24   14   15 1
  25   15   16 1
  26   15   17 1
  27   15   45 1
  28   16   46 1
  29   16   47 1
  30   17   18 1
  31   17   48 1
  32   17   49 1
  33   18   19 am
  34   18   50 1
  35   19   20 2
  36   19   21 1
  37   21   22 1
  38   21   30 1
  39   21   51 1
  40   22   23 am
  41   22   52 1
  42   23   24 2
  43   23   25 1
  44   25   26 2
  45   25   29 1
  46   26   27 1
  47   26   53 1
  48   27   28 2
  49   27   54 1
  50   28   29 1
  51   28   55 1
  52   30   31 1
  53   30   56 1
  54   30   57 1
  55   31   32 1
  56   31   36 1
  57   31   58 1
  58   32   33 1
  59   32   59 1
  60   32   60 1
  61   33   34 1
  62   33   61 1
  63   33   62 1
  64   34   35 1
  65   34   63 1
  66   34   64 1
  67   35   36 1
  68   35   65 1
  69   35   66 1
  70   36   67 1
  71   36   68 1

#	End of record

