#	Name: ASD05790036
#	Creating user name:	WinNT
#	Creation time:	15. 06. 2019 21:03

#	Modifying user name:	WinNT
#	Modification time:	15. 06. 2019 21:03

#	Program:	/corina/corina34_cracker 3.40 0067  02.08.2006

@<TRIPOS>MOLECULE
ASD05790036
  42   45    0    0    0
SMALL
NO_CHARGES


@<TRIPOS>ATOM
   1 C1            -0.1752     1.4739    -0.5691 C.2     
   2 C2            -0.1530    -0.0033    -0.5728 C.ar    
   3 C3             0.8990    -0.6881    -1.1869 C.ar    
   4 C4             0.9129    -2.0691    -1.1858 C.ar    
   5 C5            -0.1113    -2.7733    -0.5788 C.ar    
   6 C6            -1.1557    -2.1008     0.0310 C.ar    
   7 C7            -1.1800    -0.7216     0.0422 C.ar    
   8 O8             0.7233     2.0966    -1.1011 O.2     
   9 N9            -1.1942     2.1311     0.0193 N.am    
  10 C10           -1.1619     3.5253     0.1193 C.ar    
  11 C11           -2.3401     4.2556     0.0193 C.ar    
  12 C12           -2.3106     5.6306     0.1181 C.ar    
  13 C13           -1.0980     6.2880     0.3183 C.ar    
  14 C14            0.0824     5.5536     0.4182 C.ar    
  15 C15            0.0476     4.1784     0.3242 C.ar    
  16 O16           -0.3679     9.8162     0.6546 O.3     
  17 C17           -1.7013     9.8307     0.4855 C.2     
  18 N18           -2.1243     8.5976     0.3464 N.2     
  19 C19           -1.0637     7.7678     0.4244 C.2     
  20 C20            0.0404     8.5330     0.6181 C.2     
  21 C21           -2.5520    11.0395     0.4611 C.ar    
  22 C22           -1.9800    12.3025     0.6216 C.ar    
  23 C23           -2.7795    13.4265     0.5979 C.ar    
  24 C24           -4.1455    13.3038     0.4161 C.ar    
  25 C25           -4.7190    12.0548     0.2569 C.ar    
  26 C26           -3.9299    10.9232     0.2719 C.ar    
  27 Cl27           2.1847     0.1946    -1.9496 Cl      
  28 H28            1.7248    -2.6004    -1.6601 H       
  29 H29           -0.0959    -3.8532    -0.5810 H       
  30 H30           -1.9521    -2.6572     0.5027 H       
  31 H31           -1.9939    -0.1986     0.5222 H       
  32 H32           -1.9500     1.6368     0.3734 H       
  33 H33           -3.2794     3.7458    -0.1361 H       
  34 H34           -3.2264     6.1977     0.0400 H       
  35 H35            1.0232     6.0611     0.5729 H       
  36 H36            0.9614     3.6086     0.4060 H       
  37 H37            1.0555     8.1796     0.7233 H       
  38 H38           -0.9139    12.3995     0.7644 H       
  39 H39           -2.3381    14.4044     0.7220 H       
  40 H40           -4.7670    14.1869     0.3987 H       
  41 H41           -5.7860    11.9658     0.1156 H       
  42 H42           -4.3781     9.9491     0.1426 H       
@<TRIPOS>BOND
   1    1    2 1
   2    1    8 2
   3    1    9 am
   4    2    3 ar
   5    2    7 ar
   6    3    4 ar
   7    3   27 1
   8    4    5 ar
   9    4   28 1
  10    5    6 ar
  11    5   29 1
  12    6    7 ar
  13    6   30 1
  14    7   31 1
  15    9   10 1
  16    9   32 1
  17   10   11 ar
  18   10   15 ar
  19   11   12 ar
  20   11   33 1
  21   12   13 ar
  22   12   34 1
  23   13   14 ar
  24   13   19 1
  25   14   15 ar
  26   14   35 1
  27   15   36 1
  28   16   17 1
  29   16   20 1
  30   17   18 2
  31   17   21 1
  32   18   19 1
  33   19   20 2
  34   20   37 1
  35   21   22 ar
  36   21   26 ar
  37   22   23 ar
  38   22   38 1
  39   23   24 ar
  40   23   39 1
  41   24   25 ar
  42   24   40 1
  43   25   26 ar
  44   25   41 1
  45   26   42 1

#	End of record

