#	Name: ASD08070171
#	Creating user name:	WinNT
#	Creation time:	15. 06. 2019 21:14

#	Modifying user name:	WinNT
#	Modification time:	15. 06. 2019 21:14

#	Program:	/corina/corina34_cracker 3.40 0067  02.08.2006

@<TRIPOS>MOLECULE
ASD08070171
  39   40    0    0    0
SMALL
NO_CHARGES


@<TRIPOS>ATOM
   1 C1            -0.0168     1.3843     0.0097 C.ar    
   2 C2             0.0021    -0.0041     0.0020 C.ar    
   3 C3             1.2100    -0.6806    -0.0127 C.ar    
   4 C4             2.4065     0.0371    -0.0202 C.ar    
   5 C5             2.3775     1.4324    -0.0129 C.ar    
   6 C6             1.1680     2.0967     0.0022 C.ar    
   7 C7             3.7005    -0.6781    -0.0354 C.2     
   8 O8             3.7232    -1.8934    -0.0413 O.2     
   9 N9             4.8549     0.0175    -0.0427 N.am    
  10 O10           -1.1657    -0.6993     0.0094 O.3     
  11 C11            6.5094    -1.0410    -1.4999 C.3     
  12 C12            6.1370    -0.6911    -0.0577 C.3     
  13 C13            6.6271     0.2438    -2.3223 C.3     
  14 C14            7.7114     1.1384    -1.7183 C.3     
  15 C15            7.3390     1.4884    -0.2762 C.3     
  16 C16            7.2213     0.2036     0.5462 C.3     
  17 C17            6.8489     0.5536     1.9884 C.3     
  18 C18           -2.3744     0.0630     0.0250 C.3     
  19 F19           -2.4279     0.8757    -1.1124 F       
  20 F20           -3.4724    -0.8040     0.0308 F       
  21 F21           -2.4062     0.8634     1.1720 F       
  22 H22           -0.9604     1.9096     0.0170 H       
  23 H23            1.2260    -1.7605    -0.0179 H       
  24 H24            3.3012     1.9920    -0.0184 H       
  25 H25            1.1469     3.1765     0.0078 H       
  26 H26            4.8367     0.9873    -0.0379 H       
  27 H27            7.4634    -1.5682    -1.5111 H       
  28 H28            5.7369    -1.6784    -1.9301 H       
  29 H29            6.0532    -1.6064     0.5282 H       
  30 H30            6.8924    -0.0055    -3.3497 H       
  31 H31            5.6731     0.7710    -2.3111 H       
  32 H32            8.6653     0.6112    -1.7295 H       
  33 H33            7.7952     2.0537    -2.3043 H       
  34 H34            8.1114     2.1258     0.1541 H       
  35 H35            6.3850     2.0156    -0.2650 H       
  36 H36            8.1752    -0.3236     0.5350 H       
  37 H37            5.8949     1.0808     1.9996 H       
  38 H38            6.7651    -0.3617     2.5743 H       
  39 H39            7.6214     1.1909     2.4186 H       
@<TRIPOS>BOND
   1    1    2 ar
   2    1    6 ar
   3    1   22 1
   4    2    3 ar
   5    2   10 1
   6    3    4 ar
   7    3   23 1
   8    4    5 ar
   9    4    7 1
  10    5    6 ar
  11    5   24 1
  12    6   25 1
  13    7    8 2
  14    7    9 am
  15    9   12 1
  16    9   26 1
  17   10   18 1
  18   11   13 1
  19   11   12 1
  20   11   27 1
  21   11   28 1
  22   12   16 1
  23   12   29 1
  24   13   14 1
  25   13   30 1
  26   13   31 1
  27   14   15 1
  28   14   32 1
  29   14   33 1
  30   15   16 1
  31   15   34 1
  32   15   35 1
  33   16   17 1
  34   16   36 1
  35   17   37 1
  36   17   38 1
  37   17   39 1
  38   18   19 1
  39   18   20 1
  40   18   21 1

#	End of record

