#	Name: ASD00170532
#	Creating user name:	WinNT
#	Creation time:	15. 06. 2019 18:32

#	Modifying user name:	WinNT
#	Modification time:	15. 06. 2019 18:32

#	Program:	/corina/corina34_cracker 3.40 0067  02.08.2006

@<TRIPOS>MOLECULE
ASD00170532
  59   62    0    0    0
SMALL
NO_CHARGES


@<TRIPOS>ATOM
   1 C1             0.0430     1.5386     0.1194 C.3     
   2 N2             0.0499     0.0701     0.0828 N.3     
   3 C3            -1.2972    -0.4689     0.3164 C.3     
   4 C4            -1.2623    -1.9939     0.1917 C.3     
   5 N5            -0.3039    -2.5404     1.1625 N.3     
   6 C6             1.0432    -2.0014     0.9290 C.3     
   7 C7             1.0083    -0.4764     1.0537 C.3     
   8 C8            -0.2970    -4.0089     1.1260 C.3     
   9 C9             0.8572    -4.5264     1.9452 C.2     
  10 C10            2.0017    -4.9314     1.4173 C.2     
  11 S11            3.1129    -5.4659     2.6654 S.3     
  12 C12            1.9977    -5.1298     3.9097 C.2     
  13 C13            0.8286    -4.6249     3.3893 C.2     
  14 C14           -0.3220    -4.2386     4.2057 C.2     
  15 O15           -0.3785    -3.1222     4.6887 O.2     
  16 C16           -1.4166    -5.2038     4.4446 C.ar    
  17 C17           -2.5661    -4.8045     5.1288 C.ar    
  18 C18           -3.5835    -5.7091     5.3485 C.ar    
  19 C19           -3.4665    -7.0116     4.8919 C.ar    
  20 C20           -2.3284    -7.4135     4.2125 C.ar    
  21 C21           -1.3069    -6.5164     3.9817 C.ar    
  22 Cl22          -4.7512    -8.1448     5.1729 Cl      
  23 N23            2.2366    -5.3311     5.2540 N.pl3   
  24 C24           -0.2082     1.9749     1.4849 C.3     
  25 C25           -0.2984     3.5100     1.6045 C.3     
  26 C26            1.0980     4.0701     1.6323 C.3     
  27 C27            1.5910     4.4942     0.2356 C.3     
  28 C28            1.2082     3.4859    -0.8646 C.3     
  29 C29            1.3892     2.0582    -0.4255 C.3     
  30 H30           -0.7599     1.9035    -0.5212 H       
  31 H31           -1.6307    -0.1933     1.3169 H       
  32 H32           -1.9859    -0.0593    -0.4225 H       
  33 H33           -2.2543    -2.3980     0.3931 H       
  34 H34           -0.9550    -2.2693    -0.8172 H       
  35 H35            1.7319    -2.4110     1.6679 H       
  36 H36            1.3767    -2.2769    -0.0715 H       
  37 H37            2.0004    -0.0723     0.8523 H       
  38 H38            0.7010    -0.2010     2.0625 H       
  39 H39           -1.2329    -4.3870     1.5374 H       
  40 H40           -0.1909    -4.3462     0.0949 H       
  41 H41            2.2217    -4.9332     0.3600 H       
  42 H42           -2.6582    -3.7894     5.4856 H       
  43 H43           -4.4731    -5.4015     5.8780 H       
  44 H44           -2.2428    -8.4304     3.8588 H       
  45 H45           -0.4201    -6.8308     3.4515 H       
  46 H46            3.0596    -5.7561     5.5421 H       
  47 H47            1.5815    -5.0476     5.9108 H       
  48 H48           -1.1462     1.5385     1.8280 H       
  49 H49            0.5996     1.6180     2.1238 H       
  50 H50           -0.8375     3.9130     0.7471 H       
  51 H51           -0.8179     3.7757     2.5251 H       
  52 H52            1.1167     4.9380     2.2915 H       
  53 H53            1.7738     3.3130     2.0300 H       
  54 H54            1.1584     5.4640    -0.0104 H       
  55 H55            2.6763     4.5921     0.2607 H       
  56 H56            0.1645     3.6413    -1.1377 H       
  57 H57            1.8307     3.6670    -1.7409 H       
  58 H58            2.1449     2.0092     0.3585 H       
  59 H59            1.6994     1.4502    -1.2753 H       
@<TRIPOS>BOND
   1    1    2 1
   2    1   24 1
   3    1   29 1
   4    1   30 1
   5    2    3 1
   6    2    7 1
   7    3    4 1
   8    3   31 1
   9    3   32 1
  10    4    5 1
  11    4   33 1
  12    4   34 1
  13    5    6 1
  14    5    8 1
  15    6    7 1
  16    6   35 1
  17    6   36 1
  18    7   37 1
  19    7   38 1
  20    8    9 1
  21    8   39 1
  22    8   40 1
  23    9   10 2
  24    9   13 1
  25   10   11 1
  26   10   41 1
  27   11   12 1
  28   12   13 2
  29   12   23 1
  30   13   14 1
  31   14   15 2
  32   14   16 1
  33   16   17 ar
  34   16   21 ar
  35   17   18 ar
  36   17   42 1
  37   18   19 ar
  38   18   43 1
  39   19   20 ar
  40   19   22 1
  41   20   21 ar
  42   20   44 1
  43   21   45 1
  44   23   46 1
  45   23   47 1
  46   24   25 1
  47   24   48 1
  48   24   49 1
  49   25   26 1
  50   25   50 1
  51   25   51 1
  52   26   27 1
  53   26   52 1
  54   26   53 1
  55   27   28 1
  56   27   54 1
  57   27   55 1
  58   28   29 1
  59   28   56 1
  60   28   57 1
  61   29   58 1
  62   29   59 1

#	End of record

