#	Name: ASD01140133
#	Creating user name:	WinNT
#	Creation time:	15. 06. 2019 19:00

#	Modifying user name:	WinNT
#	Modification time:	15. 06. 2019 19:00

#	Program:	/corina/corina34_cracker 3.40 0067  02.08.2006

@<TRIPOS>MOLECULE
ASD01140133
  25   26    0    0    0
SMALL
NO_CHARGES


@<TRIPOS>ATOM
   1 C1            -0.0166     1.3762     0.0096 C.ar    
   2 C2             0.0021    -0.0041     0.0020 C.ar    
   3 C3             1.2188    -0.6819    -0.0133 C.ar    
   4 C4             2.4133     0.0398    -0.0209 C.ar    
   5 C5             2.3816     1.4219    -0.0131 C.ar    
   6 C6             1.1695     2.0876     0.0021 C.ar    
   7 C7             1.2448    -2.1655    -0.0210 C.ar    
   8 C8             0.4905    -2.8819     0.9074 C.ar    
   9 C9             0.5128    -4.2634     0.9026 C.ar    
  10 C10            1.2806    -4.9438    -0.0204 C.ar    
  11 C11            2.0409    -4.2377    -0.9559 C.ar    
  12 C12            2.0174    -2.8437    -0.9581 C.ar    
  13 C13            2.8637    -4.9662    -1.9434 C.2     
  14 O14            3.5241    -4.3506    -2.7560 O.2     
  15 O15            2.8815    -6.3132    -1.9425 O.3     
  16 F16            3.5974    -0.6104    -0.0353 F       
  17 H17           -0.9600     1.9020     0.0169 H       
  18 H18           -0.9253    -0.5575     0.0083 H       
  19 H19            3.3047     1.9825    -0.0190 H       
  20 H20            1.1490     3.1674     0.0081 H       
  21 H21           -0.1125    -2.3555     1.6324 H       
  22 H22           -0.0730    -4.8131     1.6245 H       
  23 H23            1.2941    -6.0237    -0.0193 H       
  24 H24            2.6031    -2.2926    -1.6790 H       
  25 H25            3.4348    -6.7453    -2.6075 H       
@<TRIPOS>BOND
   1    1    2 ar
   2    1    6 ar
   3    1   17 1
   4    2    3 ar
   5    2   18 1
   6    3    4 ar
   7    3    7 1
   8    4    5 ar
   9    4   16 1
  10    5    6 ar
  11    5   19 1
  12    6   20 1
  13    7    8 ar
  14    7   12 ar
  15    8    9 ar
  16    8   21 1
  17    9   10 ar
  18    9   22 1
  19   10   11 ar
  20   10   23 1
  21   11   12 ar
  22   11   13 1
  23   12   24 1
  24   13   14 2
  25   13   15 1
  26   15   25 1

#	End of record

