#	Name: ASD01911875
#	Creating user name:	WinNT
#	Creation time:	15. 06. 2019 19:58

#	Modifying user name:	WinNT
#	Modification time:	15. 06. 2019 19:58

#	Program:	/corina/corina34_cracker 3.40 0067  02.08.2006

@<TRIPOS>MOLECULE
ASD01911875
  49   51    0    0    0
SMALL
NO_CHARGES


@<TRIPOS>ATOM
   1 C1             0.1196    -2.3310     1.6010 C.ar    
   2 C2            -1.0710    -1.6247     1.4430 C.ar    
   3 C3            -2.0774    -1.7809     2.3876 C.ar    
   4 N4            -1.9120    -2.5844     3.4193 N.ar    
   5 C5            -0.7977    -3.2664     3.5972 C.ar    
   6 C6             0.2495    -3.1638     2.6999 C.ar    
   7 N7            -1.2498    -0.7716     0.3507 N.pl3   
   8 C8            -2.4874    -0.1595     0.1377 C.ar    
   9 C9            -3.5917    -0.9267    -0.2149 C.ar    
  10 C10           -4.8155    -0.3221    -0.4257 C.ar    
  11 C11           -4.9465     1.0466    -0.2874 C.ar    
  12 C12           -3.8468     1.8193     0.0644 C.ar    
  13 C13           -2.6172     1.2145     0.2834 C.ar    
  14 N14           -3.9803     3.2044     0.2037 N.am    
  15 C15           -5.1342     3.7272     0.6637 C.2     
  16 C16           -5.3171     5.1935     0.7038 C.ar    
  17 O17           -6.0246     2.9930     1.0456 O.2     
  18 C18           -6.5108     5.7381     1.1796 C.ar    
  19 C19           -6.6755     7.1076     1.2151 C.ar    
  20 C20           -5.6610     7.9411     0.7801 C.ar    
  21 C21           -4.4737     7.4079     0.3067 C.ar    
  22 C22           -4.2943     6.0395     0.2714 C.ar    
  23 Cl23          -3.2063     8.4622    -0.2371 Cl      
  24 C24           -0.1394    -0.5191    -0.5710 C.3     
  25 C25           -0.1682    -1.5521    -1.6993 C.3     
  26 C26            0.9914    -1.2884    -2.6619 C.3     
  27 C27            0.9626    -2.3213    -3.7902 C.3     
  28 H28            0.9196    -2.2349     0.8819 H       
  29 H29           -3.0045    -1.2383     2.2757 H       
  30 H30           -0.7013    -3.9142     4.4560 H       
  31 H31            1.1583    -3.7265     2.8544 H       
  32 H32           -3.4924    -1.9965    -0.3246 H       
  33 H33           -5.6720    -0.9204    -0.6997 H       
  34 H34           -5.9048     1.5162    -0.4533 H       
  35 H35           -1.7608     1.8129     0.5570 H       
  36 H36           -3.2425     3.7887    -0.0307 H       
  37 H37           -7.3043     5.0888     1.5190 H       
  38 H38           -7.5990     7.5298     1.5831 H       
  39 H39           -5.7954     9.0123     0.8094 H       
  40 H40           -3.3682     5.6243    -0.0979 H       
  41 H41           -0.2370     0.4816    -0.9919 H       
  42 H42            0.8049    -0.5961    -0.0320 H       
  43 H43           -0.0706    -2.5528    -1.2783 H       
  44 H44           -1.1125    -1.4751    -2.2383 H       
  45 H45            0.8938    -0.2877    -3.0828 H       
  46 H46            1.9357    -1.3653    -2.1229 H       
  47 H47            1.0602    -3.3220    -3.3692 H       
  48 H48            0.0183    -2.2444    -4.3292 H       
  49 H49            1.7888    -2.1335    -4.4759 H       
@<TRIPOS>BOND
   1    1    2 ar
   2    1    6 ar
   3    1   28 1
   4    2    3 ar
   5    2    7 1
   6    3    4 ar
   7    3   29 1
   8    4    5 ar
   9    5    6 ar
  10    5   30 1
  11    6   31 1
  12    7    8 1
  13    7   24 1
  14    8    9 ar
  15    8   13 ar
  16    9   10 ar
  17    9   32 1
  18   10   11 ar
  19   10   33 1
  20   11   12 ar
  21   11   34 1
  22   12   13 ar
  23   12   14 1
  24   13   35 1
  25   14   15 am
  26   14   36 1
  27   15   16 1
  28   15   17 2
  29   16   18 ar
  30   16   22 ar
  31   18   19 ar
  32   18   37 1
  33   19   20 ar
  34   19   38 1
  35   20   21 ar
  36   20   39 1
  37   21   22 ar
  38   21   23 1
  39   22   40 1
  40   24   25 1
  41   24   41 1
  42   24   42 1
  43   25   26 1
  44   25   43 1
  45   25   44 1
  46   26   27 1
  47   26   45 1
  48   26   46 1
  49   27   47 1
  50   27   48 1
  51   27   49 1

#	End of record

