#	Name: ASD04590915
#	Creating user name:	WinNT
#	Creation time:	15. 06. 2019 20:51

#	Modifying user name:	WinNT
#	Modification time:	15. 06. 2019 20:51

#	Program:	/corina/corina34_cracker 3.40 0067  02.08.2006

@<TRIPOS>MOLECULE
ASD04590915
  58   63    0    0    0
SMALL
NO_CHARGES


@<TRIPOS>ATOM
   1 N1            -0.0075     1.2393     0.5664 N.ar    
   2 C2             0.0047    -0.0302     0.1800 C.ar    
   3 N3             1.1294    -0.6892    -0.0485 N.ar    
   4 C4             2.3072    -0.0912     0.1041 C.ar    
   5 C5             2.3280     1.2573     0.5137 C.ar    
   6 C6             1.1199     1.9086     0.7419 C.ar    
   7 N7             3.6029    -0.5155    -0.0573 N.pl3   
   8 C8             4.4870     0.5094     0.2325 C.ar    
   9 C9             3.7418     1.6452     0.5965 C.ar    
  10 C10            5.8728     0.6011     0.2254 C.ar    
  11 N11            6.4716     1.7279     0.5533 N.ar    
  12 C12            5.8010     2.8124     0.8998 C.ar    
  13 C13            4.4227     2.8142     0.9344 C.ar    
  14 C14            3.9947    -1.8635    -0.4762 C.3     
  15 C15            3.4689    -2.9020     0.5302 C.3     
  16 C16            2.5233    -3.8356    -0.2533 C.3     
  17 C17            2.9932    -3.7053    -1.7235 C.3     
  18 C18            3.3502    -2.2024    -1.8363 C.3     
  19 N19           -1.2012    -0.6884     0.0103 N.pl3   
  20 C20           -2.4064     0.0153     0.1318 C.ar    
  21 C21           -2.4780     1.3436    -0.2668 C.ar    
  22 C22           -3.6658     2.0372    -0.1471 C.ar    
  23 C23           -4.7889     1.4065     0.3720 C.ar    
  24 C24           -4.7172     0.0781     0.7706 C.ar    
  25 C25           -3.5308    -0.6171     0.6455 C.ar    
  26 N26           -5.9928     2.1096     0.4938 N.3     
  27 C27           -7.0456     1.2567     1.0628 C.3     
  28 C28           -8.3200     2.0825     1.2533 C.3     
  29 N29           -8.7387     2.6382    -0.0411 N.3     
  30 C30           -7.6859     3.4911    -0.6101 C.3     
  31 C31           -6.4115     2.6653    -0.8007 C.3     
  32 H32            1.1028     2.9418     1.0562 H       
  33 H33            6.4648    -0.2589    -0.0509 H       
  34 H34            6.3407     3.7110     1.1601 H       
  35 H35            3.8806     3.7041     1.2183 H       
  36 H36            5.0801    -1.9308    -0.5494 H       
  37 H37            4.2991    -3.4738     0.9448 H       
  38 H38            2.9223    -2.4029     1.3304 H       
  39 H39            2.6305    -4.8640     0.0917 H       
  40 H40            1.4899    -3.5041    -0.1523 H       
  41 H41            3.8710    -4.3256    -1.9048 H       
  42 H42            2.1876    -3.9637    -2.4108 H       
  43 H43            2.4504    -1.6071    -1.9909 H       
  44 H44            4.0609    -2.0389    -2.6464 H       
  45 H45           -1.2117    -1.6369    -0.1927 H       
  46 H46           -1.6045     1.8342    -0.6701 H       
  47 H47           -3.7214     3.0704    -0.4568 H       
  48 H48           -5.5905    -0.4124     1.1746 H       
  49 H49           -3.4751    -1.6502     0.9555 H       
  50 H50           -7.2477     0.4273     0.3850 H       
  51 H51           -6.7171     0.8675     2.0264 H       
  52 H52           -9.1109     1.4449     1.6482 H       
  53 H53           -8.1252     2.8959     1.9523 H       
  54 H54           -8.9958     1.9039    -0.6837 H       
  55 H55           -8.0144     3.8803    -1.5738 H       
  56 H56           -7.4838     4.3205     0.0677 H       
  57 H57           -5.6206     3.3029    -1.1956 H       
  58 H58           -6.6063     1.8519    -1.4997 H       
@<TRIPOS>BOND
   1    1    2 ar
   2    1    6 ar
   3    2    3 ar
   4    2   19 1
   5    3    4 ar
   6    4    5 ar
   7    4    7 1
   8    5    6 ar
   9    5    9 1
  10    6   32 1
  11    7    8 1
  12    7   14 1
  13    8    9 ar
  14    8   10 ar
  15    9   13 ar
  16   10   11 ar
  17   10   33 1
  18   11   12 ar
  19   12   13 ar
  20   12   34 1
  21   13   35 1
  22   14   15 1
  23   14   18 1
  24   14   36 1
  25   15   16 1
  26   15   37 1
  27   15   38 1
  28   16   17 1
  29   16   39 1
  30   16   40 1
  31   17   18 1
  32   17   41 1
  33   17   42 1
  34   18   43 1
  35   18   44 1
  36   19   20 1
  37   19   45 1
  38   20   21 ar
  39   20   25 ar
  40   21   22 ar
  41   21   46 1
  42   22   23 ar
  43   22   47 1
  44   23   24 ar
  45   23   26 1
  46   24   25 ar
  47   24   48 1
  48   25   49 1
  49   26   27 1
  50   26   31 1
  51   27   28 1
  52   27   50 1
  53   27   51 1
  54   28   29 1
  55   28   52 1
  56   28   53 1
  57   29   30 1
  58   29   54 1
  59   30   31 1
  60   30   55 1
  61   30   56 1
  62   31   57 1
  63   31   58 1

#	End of record

