#	Name: ASD01910990
#	Creating user name:	WinNT
#	Creation time:	15. 06. 2019 19:56

#	Modifying user name:	WinNT
#	Modification time:	15. 06. 2019 19:56

#	Program:	/corina/corina34_cracker 3.40 0067  02.08.2006

@<TRIPOS>MOLECULE
ASD01910990
  47   50    0    0    0
SMALL
NO_CHARGES


@<TRIPOS>ATOM
   1 N1             0.1393     1.3756    -0.1950 N.3     
   2 C2             0.0792    -0.0903    -0.1200 C.3     
   3 C3            -1.3666    -0.5263     0.1403 C.3     
   4 N4            -2.2292     0.0798    -0.8853 N.am    
   5 C5            -2.1254     1.5290    -1.1141 C.3     
   6 C6            -0.6497     1.8841    -1.3250 C.3     
   7 C7            -3.0915    -0.6728    -1.5969 C.2     
   8 C8            -4.0358    -0.0287    -2.5332 C.ar    
   9 C9            -4.3100    -0.6218    -3.7685 C.ar    
  10 C10           -5.1915    -0.0237    -4.6454 C.ar    
  11 C11           -5.8105     1.1670    -4.3091 C.ar    
  12 C12           -5.5444     1.7722    -3.0735 C.ar    
  13 C13           -4.6583     1.1679    -2.1830 C.ar    
  14 C14           -6.1843     3.0049    -2.7247 C.1     
  15 O15           -3.0924    -1.8817    -1.4685 O.2     
  16 C16           -6.7090     4.0154    -2.4388 C.1     
  17 C17           -7.3490     5.2481    -2.0900 C.ar    
  18 N18           -7.0915     5.8164    -0.9159 N.ar    
  19 C19           -7.6600     6.9497    -0.5588 C.ar    
  20 C20           -8.5510     7.5933    -1.3978 C.ar    
  21 C21           -8.8493     7.0353    -2.6340 C.ar    
  22 C22           -8.2355     5.8481    -2.9885 C.ar    
  23 C23            1.4497     1.8152    -0.2673 C.ar    
  24 F24           -6.6722     1.7470    -5.1729 F       
  25 N25            1.6924     3.1157    -0.3412 N.ar    
  26 C26            2.9330     3.5690    -0.4115 C.ar    
  27 C27            3.9842     2.6656    -0.4072 C.ar    
  28 C28            3.6947     1.3124    -0.3288 C.ar    
  29 N29            2.4318     0.9260    -0.2556 N.ar    
  30 H30            0.4239    -0.5171    -1.0618 H       
  31 H31            0.7162    -0.4393     0.6927 H       
  32 H32           -1.4375    -1.6124     0.0831 H       
  33 H33           -1.6790    -0.1877     1.1281 H       
  34 H34           -2.6979     1.8016    -2.0007 H       
  35 H35           -2.5107     2.0651    -0.2469 H       
  36 H36           -0.5413     2.9669    -1.3862 H       
  37 H37           -0.2949     1.4297    -2.2501 H       
  38 H38           -3.8301    -1.5511    -4.0379 H       
  39 H39           -5.3990    -0.4869    -5.5987 H       
  40 H40           -4.4492     1.6291    -1.2291 H       
  41 H41           -7.4272     7.3822     0.4031 H       
  42 H42           -9.0113     8.5219    -1.0942 H       
  43 H43           -9.5425     7.5202    -3.3055 H       
  44 H44           -8.4444     5.3869    -3.9425 H       
  45 H45            3.1246     4.6301    -0.4719 H       
  46 H46            5.0067     3.0087    -0.4639 H       
  47 H47            4.4908     0.5826    -0.3237 H       
@<TRIPOS>BOND
   1    1    2 1
   2    1   23 1
   3    1    6 1
   4    2    3 1
   5    2   30 1
   6    2   31 1
   7    3    4 1
   8    3   32 1
   9    3   33 1
  10    4    5 1
  11    4    7 am
  12    5    6 1
  13    5   34 1
  14    5   35 1
  15    6   36 1
  16    6   37 1
  17    7    8 1
  18    7   15 2
  19    8    9 ar
  20    8   13 ar
  21    9   10 ar
  22    9   38 1
  23   10   11 ar
  24   10   39 1
  25   11   12 ar
  26   11   24 1
  27   12   13 ar
  28   12   14 1
  29   13   40 1
  30   14   16 3
  31   16   17 1
  32   17   18 ar
  33   17   22 ar
  34   18   19 ar
  35   19   20 ar
  36   19   41 1
  37   20   21 ar
  38   20   42 1
  39   21   22 ar
  40   21   43 1
  41   22   44 1
  42   23   25 ar
  43   23   29 ar
  44   25   26 ar
  45   26   27 ar
  46   26   45 1
  47   27   28 ar
  48   27   46 1
  49   28   29 ar
  50   28   47 1

#	End of record

