#	Name: ASD00170744
#	Creating user name:	WinNT
#	Creation time:	15. 06. 2019 18:32

#	Modifying user name:	WinNT
#	Modification time:	15. 06. 2019 18:32

#	Program:	/corina/corina34_cracker 3.40 0067  02.08.2006

@<TRIPOS>MOLECULE
ASD00170744
  39   41    0    0    0
SMALL
NO_CHARGES


@<TRIPOS>ATOM
   1 C1            -0.0150     1.2130     0.0019 C.2     
   2 O2             0.6028     1.0969    -1.0411 O.2     
   3 C3             0.5322     0.6439     1.2531 C.ar    
   4 C4             1.6992    -0.1213     1.2235 C.ar    
   5 C5             2.2044    -0.6487     2.3936 C.ar    
   6 C6             1.5569    -0.4206     3.5952 C.ar    
   7 C7             0.3996     0.3365     3.6313 C.ar    
   8 C8            -0.1130     0.8745     2.4687 C.ar    
   9 C9             3.4640    -1.4755     2.3635 C.3     
  10 F10            4.5738    -0.6410     2.5347 F       
  11 F11            3.4269    -2.4196     3.3952 F       
  12 F12            3.5607    -2.1333     1.1326 F       
  13 C13           -1.3710     3.2627     0.1343 C.2     
  14 C14           -1.2564     1.8989     0.0182 C.2     
  15 C15           -2.5462     1.2343    -0.0862 C.2     
  16 C16           -3.5740     2.0883    -0.0475 C.2     
  17 S17           -3.0065     3.7399     0.1182 S.3     
  18 C18           -2.7039    -0.2333    -0.2216 C.ar    
  19 C19           -3.5813    -0.9230     0.6145 C.ar    
  20 C20           -3.7240    -2.2891     0.4838 C.ar    
  21 C21           -2.9986    -2.9746    -0.4744 C.ar    
  22 C22           -2.1264    -2.2960    -1.3063 C.ar    
  23 C23           -1.9800    -0.9286    -1.1890 C.ar    
  24 C24           -4.6714    -3.0361     1.3868 C.3     
  25 F25           -5.9391    -3.0823     0.7969 F       
  26 F26           -4.2000    -4.3388     1.5820 F       
  27 F27           -4.7545    -2.3806     2.6200 F       
  28 N28           -0.3046     4.1298     0.2539 N.pl3   
  29 H29            2.2053    -0.3004     0.2863 H       
  30 H30            1.9565    -0.8357     4.5086 H       
  31 H31           -0.1012     0.5106     4.5722 H       
  32 H32           -1.0141     1.4692     2.4989 H       
  33 H33           -4.6130     1.8005    -0.1103 H       
  34 H34           -4.1478    -0.3890     1.3630 H       
  35 H35           -3.1135    -4.0440    -0.5731 H       
  36 H36           -1.5623    -2.8364    -2.0519 H       
  37 H37           -1.3026    -0.3990    -1.8425 H       
  38 H38            0.5970     3.7813     0.3351 H       
  39 H39           -0.4564     5.0878     0.2567 H       
@<TRIPOS>BOND
   1    1    2 2
   2    1    3 1
   3    1   14 1
   4    3    4 ar
   5    3    8 ar
   6    4    5 ar
   7    4   29 1
   8    5    6 ar
   9    5    9 1
  10    6    7 ar
  11    6   30 1
  12    7    8 ar
  13    7   31 1
  14    8   32 1
  15    9   10 1
  16    9   11 1
  17    9   12 1
  18   13   14 2
  19   13   17 1
  20   13   28 1
  21   14   15 1
  22   15   16 2
  23   15   18 1
  24   16   17 1
  25   16   33 1
  26   18   19 ar
  27   18   23 ar
  28   19   20 ar
  29   19   34 1
  30   20   21 ar
  31   20   24 1
  32   21   22 ar
  33   21   35 1
  34   22   23 ar
  35   22   36 1
  36   23   37 1
  37   24   25 1
  38   24   26 1
  39   24   27 1
  40   28   38 1
  41   28   39 1

#	End of record

