#	Name: ASD08150724
#	Creating user name:	WinNT
#	Creation time:	15. 06. 2019 21:16

#	Modifying user name:	WinNT
#	Modification time:	15. 06. 2019 21:16

#	Program:	/corina/corina34_cracker 3.40 0067  02.08.2006

@<TRIPOS>MOLECULE
ASD08150724
  34   36    0    0    0
SMALL
NO_CHARGES


@<TRIPOS>ATOM
   1 C1            -0.0787     1.1800     0.0590 C.2     
   2 N2             0.0937    -0.1294     0.1063 N.2     
   3 C3             1.2983    -0.6753     0.0460 C.2     
   4 C4             2.4104     0.1550    -0.0702 C.2     
   5 C5             2.2191     1.5487    -0.1200 C.2     
   6 N6             0.9546     2.0593    -0.0539 N.am    
   7 S7            -1.5498     2.1677     0.1105 S.3     
   8 C8             0.5986     3.3849    -0.0896 C.2     
   9 C9            -0.6809     3.7070    -0.0159 C.2     
  10 O10            3.1779     2.2961    -0.2212 O.2     
  11 C11            3.7722    -0.4191    -0.1398 C.ar    
  12 C12            4.5465    -0.2283    -1.2853 C.ar    
  13 C13            5.8171    -0.7711    -1.3349 C.ar    
  14 C14            6.2756    -1.4885    -0.2375 C.ar    
  15 C15            5.4566    -1.6391     0.8649 C.ar    
  16 N16            4.2506    -1.1073     0.8903 N.ar    
  17 C17            1.6512     4.4564    -0.2122 C.3     
  18 C18            1.4637    -2.1721     0.1028 C.3     
  19 C19            1.0580    -2.6778     1.4886 C.3     
  20 N20            0.6127    -2.7964    -0.9132 N.2     
  21 N21            0.6617    -3.9065    -1.0826 N.1     
  22 N22            0.7107    -5.0165    -1.2520 N.pl3   
  23 H23           -1.1074     4.6991    -0.0332 H       
  24 H24            4.1584     0.3349    -2.1211 H       
  25 H25            6.4393    -0.6405    -2.2080 H       
  26 H26            7.2634    -1.9250    -0.2460 H       
  27 H27            5.8108    -2.1968     1.7192 H       
  28 H28            1.8333     4.6678    -1.2659 H       
  29 H29            1.3068     5.3626     0.2860 H       
  30 H30            2.5746     4.1136     0.2545 H       
  31 H31            2.5055    -2.4301    -0.0875 H       
  32 H32            1.6912    -2.2134     2.2446 H       
  33 H33            0.0162    -2.4199     1.6789 H       
  34 H34            1.1776    -3.7605     1.5297 H       
@<TRIPOS>BOND
   1    1    2 2
   2    1    6 1
   3    1    7 1
   4    2    3 1
   5    3    4 2
   6    3   18 1
   7    4    5 1
   8    4   11 1
   9    5    6 am
  10    5   10 2
  11    6    8 1
  12    7    9 1
  13    8    9 2
  14    8   17 1
  15    9   23 1
  16   11   12 ar
  17   11   16 ar
  18   12   13 ar
  19   12   24 1
  20   13   14 ar
  21   13   25 1
  22   14   15 ar
  23   14   26 1
  24   15   16 ar
  25   15   27 1
  26   17   28 1
  27   17   29 1
  28   17   30 1
  29   18   19 1
  30   18   20 1
  31   18   31 1
  32   19   32 1
  33   19   33 1
  34   19   34 1
  35   20   21 2
  36   21   22 2

#	End of record

