#	Name: ASD06610004
#	Creating user name:	WinNT
#	Creation time:	15. 06. 2019 21:07

#	Modifying user name:	WinNT
#	Modification time:	15. 06. 2019 21:07

#	Program:	/corina/corina34_cracker 3.40 0067  02.08.2006

@<TRIPOS>MOLECULE
ASD06610004
 333  333    0    0    0
SMALL
NO_CHARGES


@<TRIPOS>ATOM
   1 C1            -5.3281   -17.0427     9.0665 C.2     
   2 O2            -5.7598   -18.1731     9.1480 O.2     
   3 N3            -3.1458   -18.0277     9.4619 N.am    
   4 C4            -3.8403   -16.8031     9.0567 C.3     
   5 C5            -3.3967   -16.4079     7.6467 C.3     
   6 C6            -1.8899   -16.1424     7.6418 C.3     
   7 O7            -3.6963   -17.4694     6.7381 O.3     
   8 C8            -8.2801   -15.0666     8.2037 C.2     
   9 O9            -7.6107   -14.1243     7.8362 O.2     
  10 N10           -6.1790   -16.0011     8.9792 N.am    
  11 C11           -7.6213   -16.2395     8.8829 C.3     
  12 C12           -8.2049   -16.4096    10.2869 C.3     
  13 C13           -7.5361   -17.6003    10.9765 C.3     
  14 C14           -7.9512   -15.1398    11.1019 C.3     
  15 C15          -11.6979   -13.8460     7.7665 C.2     
  16 O16          -12.1481   -14.6620     8.5427 O.2     
  17 N17           -9.6130   -15.0648     8.0045 N.am    
  18 C18          -10.2535   -13.9246     7.3442 C.3     
  19 C19          -10.1748   -14.1039     5.8268 C.3     
  20 C20          -14.6898   -12.0801     6.6293 C.2     
  21 O21          -14.1385   -11.6761     5.6274 O.2     
  22 N22          -12.4895   -12.8688     7.2817 N.am    
  23 C23          -13.8937   -12.7923     7.6923 C.3     
  24 C24          -13.9986   -12.0220     9.0100 C.3     
  25 C25          -13.2952   -12.8085    10.1180 C.3     
  26 C26          -13.4001   -12.0382    11.4357 C.3     
  27 N27          -12.7266   -12.7913    12.4966 N.pl3   
  28 C28          -12.6907   -12.2924    13.7772 C.2     
  29 N29          -12.0915   -12.9625    14.7211 N.2     
  30 N30          -13.2868   -11.0868    14.0622 N.pl3   
  31 C31          -18.0145   -10.5811     6.3791 C.2     
  32 O32          -18.2216   -10.7064     7.5675 O.2     
  33 N33          -16.0144   -11.8920     6.7919 N.am    
  34 C34          -16.7883   -11.1995     5.7586 C.3     
  35 C35          -17.2114   -12.2006     4.6816 C.3     
  36 O36          -18.1083   -13.1583     5.2475 O.3     
  37 C37          -21.1411    -9.1268     5.1657 C.2     
  38 O38          -20.9277    -9.4797     4.0252 O.2     
  39 N39          -18.8810    -9.8888     5.6134 N.am    
  40 C40          -20.0731    -9.2876     6.2166 C.3     
  41 C41          -19.7159    -7.9168     6.7947 C.3     
  42 O42          -19.3433    -7.0348     5.7339 O.3     
  43 C43          -24.3063    -7.3219     4.8713 C.2     
  44 O44          -24.1230    -6.7188     5.9075 O.2     
  45 N45          -22.3336    -8.5909     5.4933 N.am    
  46 C46          -23.3719    -8.4346     4.4717 C.3     
  47 C47          -24.1595    -9.7398     4.3411 C.3     
  48 C48          -23.2372   -10.8416     3.8156 C.3     
  49 C49          -24.0248   -12.1468     3.6850 C.3     
  50 N50          -23.1416   -13.2018     3.1817 N.pl3   
  51 C51          -23.6311   -14.4710     2.9824 C.2     
  52 N52          -24.8808   -14.7357     3.2412 N.2     
  53 N53          -22.8023   -15.4611     2.5102 N.pl3   
  54 C54          -27.5973    -6.1298     3.8169 C.2     
  55 O55          -27.7780    -7.0916     3.1006 O.2     
  56 N56          -25.3457    -6.9969     4.0773 N.am    
  57 C57          -26.2541    -5.9152     4.4658 C.3     
  58 C58          -25.6755    -4.5745     4.0090 C.3     
  59 C59          -24.3723    -4.2986     4.7616 C.3     
  60 C60          -23.8023    -2.9780     4.3116 C.2     
  61 O61          -24.3793    -2.3247     3.4749 O.2     
  62 O62          -22.6537    -2.5277     4.8404 O.3     
  63 C63          -30.6139    -4.1392     3.2686 C.2     
  64 O64          -30.0819    -3.1226     3.6616 O.2     
  65 N65          -28.5977    -5.2529     4.0328 N.am    
  66 C66          -29.9035    -5.4615     3.4021 C.3     
  67 C67          -30.7419    -6.4060     4.2656 C.3     
  68 C68          -30.0832    -7.7866     4.2988 C.3     
  69 C69          -30.9216    -8.7311     5.1624 C.3     
  70 C70          -30.2629   -10.1117     5.1955 C.3     
  71 N71          -31.0680   -11.0185     6.0246 N.3     
  72 C72          -34.0192    -3.0330     2.5314 C.2     
  73 O73          -34.4595    -4.1612     2.5967 O.2     
  74 N74          -31.8404    -4.0863     2.7125 N.am    
  75 C75          -32.5311    -2.8008     2.5827 C.3     
  76 C76          -32.0786    -2.1063     1.2968 C.3     
  77 C77          -30.5923    -1.7585     1.4008 C.3     
  78 C78          -30.1398    -1.0640     0.1148 C.3     
  79 N79          -28.7166    -0.7310     0.2143 N.pl3   
  80 C80          -28.0843    -0.0972    -0.8290 C.2     
  81 N81          -26.8181     0.1991    -0.7404 N.2     
  82 N82          -28.7875     0.2242    -1.9658 N.pl3   
  83 C83          -36.9700    -1.0670     1.6423 C.2     
  84 O84          -36.2998    -0.1520     1.2127 O.2     
  85 N85          -34.8607    -1.9870     2.4129 N.am    
  86 C86          -36.3074    -2.2127     2.3629 C.3     
  87 C87          -36.8584    -2.3063     3.7872 C.3     
  88 C88          -36.2794    -3.5428     4.4778 C.3     
  89 C89          -36.8304    -3.6364     5.9020 C.3     
  90 N90          -36.2760    -4.8203     6.5633 N.pl3   
  91 C91          -36.6300    -5.1129     7.8591 C.2     
  92 N92          -37.4588    -4.3370     8.4994 N.2     
  93 N93          -36.1097    -6.2240     8.4797 N.pl3   
  94 C94          -40.3843     0.1712     1.2269 C.2     
  95 O95          -40.8241    -0.6001     2.0530 O.2     
  96 N96          -38.3073    -1.0591     1.4752 N.am    
  97 C97          -38.9515     0.0547     0.7746 C.3     
  98 C98          -38.9118    -0.2002    -0.7335 C.3     
  99 O99          -39.7024    -1.3495    -1.0433 O.3     
 100 C100         -43.3840     1.9143     0.0752 C.2     
 101 O101         -42.8530     2.2618    -0.9584 O.2     
 102 N102         -41.1770     1.1326     0.7132 N.am    
 103 C103         -42.5698     1.2459     1.1529 C.3     
 104 C104         -42.6343     2.0815     2.4329 C.3     
 105 C105         -45.3995     4.1774    -0.8330 C.2     
 106 O106         -44.7058     4.7348    -0.0089 O.2     
 107 N107         -44.7021     2.1259     0.2599 N.am    
 108 C108         -45.5154     2.6749    -0.8280 C.3     
 109 C109         -46.9783     2.2769    -0.6220 C.3     
 110 C110         -47.1103     0.7790    -0.7217 C.2     
 111 O111         -46.1562     0.1082    -1.0373 O.2     
 112 O112         -48.2877     0.1901    -0.4599 O.3     
 113 C113         -47.4137     6.9100    -1.9563 C.2     
 114 O114         -48.3295     6.1519    -2.1961 O.2     
 115 N115         -46.0666     4.9017    -1.7532 N.am    
 116 C116         -46.0324     6.3653    -1.6988 C.3     
 117 C117         -45.0693     6.8929    -2.7642 C.3     
 118 C118         -45.4522     6.3157    -4.1285 C.3     
 119 C119         -46.8104     6.8756    -4.5561 C.3     
 120 C120         -43.6409     6.4707    -2.4145 C.3     
 121 C121         -48.7981    10.1988    -2.7503 C.2     
 122 O122         -47.7006    10.7135    -2.7881 O.2     
 123 N123         -47.6314     8.2396    -1.9200 N.am    
 124 C124         -48.9473     8.7764    -2.2754 C.3     
 125 C125         -49.8607     8.7415    -1.0484 C.3     
 126 C126         -50.1090     7.3102    -0.6475 C.ar    
 127 C127         -49.2634     6.6876     0.2515 C.ar    
 128 C128         -49.4911     5.3746     0.6192 C.ar    
 129 C129         -50.5647     4.6844     0.0882 C.ar    
 130 C130         -51.4108     5.3073    -0.8102 C.ar    
 131 C131         -51.1856     6.6216    -1.1745 C.ar    
 132 C132         -49.7376    13.2101    -2.4074 C.2     
 133 O133         -49.8464    12.7626    -1.2904 O.2     
 134 N134         -49.8843    10.8989    -3.1329 N.am    
 135 C135         -49.7392    12.2817    -3.5946 C.3     
 136 C136         -50.9067    12.6363    -4.5177 C.3     
 137 C137         -50.6910    14.0354    -5.0983 C.3     
 138 C138         -51.7919    14.3405    -6.1160 C.3     
 139 C139         -52.2127    12.6104    -3.7212 C.3     
 140 O140         -49.6152    14.5341    -2.5910 O.3     
 141 C141          -1.9161   -17.9555    10.0087 C.2     
 142 O142          -1.3845   -16.8768    10.1653 O.2     
 143 C143          13.4427   -25.6545    17.4935 C.3     
 144 C144          12.7174   -24.3755    17.0703 C.3     
 145 C145          11.3506   -24.7346    16.4838 C.3     
 146 C146          10.6253   -23.4556    16.0606 C.3     
 147 C147           9.2586   -23.8147    15.4741 C.3     
 148 C148           8.5333   -22.5358    15.0509 C.3     
 149 C149           7.1665   -22.8948    14.4644 C.3     
 150 C150           6.4412   -21.6159    14.0412 C.3     
 151 C151           5.0745   -21.9749    13.4547 C.3     
 152 C152           4.3492   -20.6960    13.0315 C.3     
 153 C153           2.9824   -21.0550    12.4450 C.3     
 154 C154           2.2571   -19.7761    12.0218 C.3     
 155 C155           0.8904   -20.1352    11.4353 C.3     
 156 C156           0.1650   -18.8562    11.0121 C.3     
 157 C157          -1.2017   -19.2153    10.4256 C.3     
 158 H158          -3.5710   -18.8905     9.3366 H       
 159 H159          -3.5970   -16.0002     9.7525 H       
 160 H160          -3.9256   -15.5060     7.3389 H       
 161 H161          -1.3565   -17.0723     7.8388 H       
 162 H162          -1.5929   -15.7524     6.6683 H       
 163 H163          -1.6469   -15.4134     8.4148 H       
 164 H164          -4.6361   -17.6921     6.6896 H       
 165 H165          -5.8364   -15.0936     8.9801 H       
 166 H166          -7.8020   -17.1441     8.3023 H       
 167 H167          -9.2780   -16.5869    10.2153 H       
 168 H168          -6.4630   -17.4229    11.0482 H       
 169 H169          -7.9519   -17.7215    11.9768 H       
 170 H170          -7.7168   -18.5049    10.3959 H       
 171 H171          -8.4277   -14.2914    10.6106 H       
 172 H172          -8.3671   -15.2609    12.1022 H       
 173 H173          -6.8782   -14.9624    11.1736 H       
 174 H174         -10.1483   -15.8184     8.2984 H       
 175 H175          -9.7412   -13.0054     7.6285 H       
 176 H176         -10.6870   -15.0231     5.5425 H       
 177 H177         -10.6513   -13.2556     5.3355 H       
 178 H178          -9.1300   -14.1608     5.5214 H       
 179 H179         -12.1295   -12.2161     6.6610 H       
 180 H180         -14.2880   -13.7994     7.8278 H       
 181 H181         -13.5244   -11.0468     8.8995 H       
 182 H182         -15.0486   -11.8880     9.2700 H       
 183 H183         -13.7695   -13.7837    10.2285 H       
 184 H184         -12.2452   -12.9425     9.8580 H       
 185 H185         -12.9259   -11.0630    11.3252 H       
 186 H186         -14.4501   -11.9042    11.6957 H       
 187 H187         -12.3061   -13.6419    12.2955 H       
 188 H188         -12.0661   -12.6105    15.6246 H       
 189 H189         -13.7327   -10.5881    13.3598 H       
 190 H190         -13.2614   -10.7348    14.9658 H       
 191 H191         -16.4554   -12.2151     7.5932 H       
 192 H192         -16.1758   -10.4185     5.3081 H       
 193 H193         -17.7099   -11.6715     3.8695 H       
 194 H194         -16.3301   -12.7123     4.2949 H       
 195 H195         -18.4182   -13.8257     4.6200 H       
 196 H196         -18.7154    -9.7886     4.6629 H       
 197 H197         -20.4418    -9.9332     7.0137 H       
 198 H198         -20.5788    -7.5083     7.3207 H       
 199 H199         -18.8828    -8.0214     7.4898 H       
 200 H200         -19.1035    -6.1453     6.0279 H       
 201 H201         -22.5043    -8.3087     6.4055 H       
 202 H202         -22.9075    -8.1933     3.5156 H       
 203 H203         -24.5500   -10.0277     5.3172 H       
 204 H204         -24.9872    -9.5968     3.6464 H       
 205 H205         -22.8467   -10.5537     2.8395 H       
 206 H206         -22.4095   -10.9847     4.5102 H       
 207 H207         -24.4153   -12.4348     4.6610 H       
 208 H208         -24.8524   -12.0038     2.9903 H       
 209 H209         -22.2115   -13.0049     2.9892 H       
 210 H210         -25.2262   -15.6311     3.1006 H       
 211 H211         -21.8722   -15.2642     2.3176 H       
 212 H212         -23.1476   -16.3566     2.3695 H       
 213 H213         -25.4923    -7.4792     3.2486 H       
 214 H214         -26.3708    -5.9103     5.5495 H       
 215 H215         -25.4759    -4.6109     2.9380 H       
 216 H216         -26.3913    -3.7796     4.2184 H       
 217 H217         -24.5719    -4.2622     5.8325 H       
 218 H218         -23.6565    -5.0935     4.5522 H       
 219 H219         -22.3275    -1.6755     4.5204 H       
 220 H220         -28.4532    -4.4836     4.6057 H       
 221 H221         -29.7638    -5.9002     2.4141 H       
 222 H222         -30.8071    -6.0101     5.2791 H       
 223 H223         -31.7433    -6.4913     3.8438 H       
 224 H224         -30.0180    -8.1825     3.2853 H       
 225 H225         -29.0818    -7.7013     4.7206 H       
 226 H226         -30.9868    -8.3352     6.1758 H       
 227 H227         -31.9231    -8.8164     4.7405 H       
 228 H228         -30.1978   -10.5076     4.1820 H       
 229 H229         -29.2615   -10.0264     5.6173 H       
 230 H230         -30.6534   -11.9377     6.0624 H       
 231 H231         -31.1973   -10.6418     6.9517 H       
 232 H232         -32.2659    -4.8993     2.3981 H       
 233 H233         -32.2909    -2.1712     3.4395 H       
 234 H234         -32.2374    -2.7725     0.4488 H       
 235 H235         -32.6563    -1.1930     1.1544 H       
 236 H236         -30.4334    -1.0923     2.2487 H       
 237 H237         -30.0145    -2.6718     1.5431 H       
 238 H238         -30.2986    -1.7302    -0.7332 H       
 239 H239         -30.7175    -0.1507    -0.0275 H       
 240 H240         -28.2204    -0.9577     1.0164 H       
 241 H241         -26.3719     0.6463    -1.4765 H       
 242 H242         -29.7298     0.0037    -2.0317 H       
 243 H243         -28.3414     0.6714    -2.7019 H       
 244 H244         -34.5086    -1.0847     2.3606 H       
 245 H245         -36.5119    -3.1426     1.8324 H       
 246 H246         -36.5768    -1.4133     4.3451 H       
 247 H247         -37.9449    -2.3852     3.7520 H       
 248 H248         -36.5609    -4.4358     3.9198 H       
 249 H249         -35.1928    -3.4639     4.5130 H       
 250 H250         -36.5489    -2.7433     6.4600 H       
 251 H251         -37.9170    -3.7153     5.8668 H       
 252 H252         -35.6592    -5.3977     6.0868 H       
 253 H253         -37.7085    -4.5435     9.4137 H       
 254 H254         -35.4929    -6.8014     8.0032 H       
 255 H255         -36.3594    -6.4304     9.3939 H       
 256 H256         -38.8433    -1.7909     1.8188 H       
 257 H257         -38.4227     0.9806     1.0007 H       
 258 H258         -39.3104     0.6675    -1.2592 H       
 259 H259         -37.8818    -0.3727    -1.0458 H       
 260 H260         -39.7229    -1.5707    -1.9844 H       
 261 H261         -40.8252     1.7495     0.0525 H       
 262 H262         -42.9714     0.2515     1.3475 H       
 263 H263         -43.6706     2.1658     2.7600 H       
 264 H264         -42.0454     1.5980     3.2124 H       
 265 H265         -42.2327     3.0759     2.2383 H       
 266 H266         -45.1124     1.9147     1.1131 H       
 267 H267         -45.1622     2.2800    -1.7806 H       
 268 H268         -47.3091     2.6060     0.3631 H       
 269 H269         -47.5943     2.7477    -1.3882 H       
 270 H270         -48.3236    -0.7731    -0.5371 H       
 271 H271         -46.5694     4.4540    -2.4514 H       
 272 H272         -45.6939     6.6844    -0.7130 H       
 273 H273         -45.1281     7.9807    -2.8005 H       
 274 H274         -44.6973     6.5918    -4.8646 H       
 275 H275         -45.5124     5.2295    -4.0595 H       
 276 H276         -46.9723     6.6678    -5.6138 H       
 277 H277         -47.5987     6.4050    -3.9686 H       
 278 H278         -46.8277     7.9528    -4.3906 H       
 279 H279         -43.5522     5.3873    -2.4951 H       
 280 H280         -42.9428     6.9447    -3.1044 H       
 281 H281         -43.4101     6.7793    -1.3949 H       
 282 H282         -46.9167     8.8411    -1.6585 H       
 283 H283         -49.3837     8.1718    -3.0705 H       
 284 H284         -49.3830     9.2719    -0.2247 H       
 285 H285         -50.8095     9.2215    -1.2880 H       
 286 H286         -48.4246     7.2268     0.6664 H       
 287 H287         -48.8301     4.8880     1.3211 H       
 288 H288         -50.7422     3.6584     0.3749 H       
 289 H289         -52.2493     4.7679    -1.2253 H       
 290 H290         -51.8487     7.1094    -1.8736 H       
 291 H291         -50.7621    10.4873    -3.1027 H       
 292 H292         -48.8007    12.3864    -4.1390 H       
 293 H293         -50.9615    11.9107    -5.3292 H       
 294 H294         -50.7248    14.7713    -4.2949 H       
 295 H295         -49.7193    14.0788    -5.5901 H       
 296 H296         -52.7636    14.2970    -5.6242 H       
 297 H297         -51.6383    15.3372    -6.5296 H       
 298 H298         -51.7581    13.6046    -6.9194 H       
 299 H299         -53.0444    12.8631    -4.3789 H       
 300 H300         -52.3664    11.6137    -3.3076 H       
 301 H301         -52.1578    13.3361    -2.9097 H       
 302 H302         -49.6195    15.0893    -1.7993 H       
 303 H303          14.4164   -25.3987    17.9114 H       
 304 H304          12.8505   -26.1763    18.2452 H       
 305 H305          13.5780   -26.2997    16.6254 H       
 306 H306          12.5821   -23.7304    17.9384 H       
 307 H307          13.3096   -23.8537    16.3186 H       
 308 H308          11.4859   -25.3798    15.6157 H       
 309 H309          10.7584   -25.2564    17.2355 H       
 310 H310          10.4900   -22.8105    16.9287 H       
 311 H311          11.2176   -22.9339    15.3089 H       
 312 H312           9.3939   -24.4599    14.6060 H       
 313 H313           8.6663   -24.3365    16.2258 H       
 314 H314           8.3980   -21.8906    15.9190 H       
 315 H315           9.1255   -22.0140    14.2992 H       
 316 H316           7.3018   -23.5400    13.5963 H       
 317 H317           6.5743   -23.4166    15.2161 H       
 318 H318           6.3059   -20.9707    14.9093 H       
 319 H319           7.0335   -21.0941    13.2895 H       
 320 H320           5.2098   -22.6201    12.5866 H       
 321 H321           4.4822   -22.4967    14.2064 H       
 322 H322           4.2139   -20.0508    13.8996 H       
 323 H323           4.9414   -20.1742    12.2798 H       
 324 H324           3.1177   -21.7002    11.5769 H       
 325 H325           2.3902   -21.5768    13.1967 H       
 326 H326           2.1218   -19.1309    12.8899 H       
 327 H327           2.8493   -19.2543    11.2701 H       
 328 H328           1.0256   -20.7803    10.5672 H       
 329 H329           0.2981   -20.6569    12.1870 H       
 330 H330           0.0298   -18.2110    11.8801 H       
 331 H331           0.7573   -18.3344    10.2603 H       
 332 H332          -1.7939   -19.7371    11.1773 H       
 333 H333          -1.0664   -19.8604     9.5575 H       
@<TRIPOS>BOND
   1    1    2 2
   2    1    4 1
   3    1   10 am
   4    3  141 am
   5    3    4 1
   6    3  158 1
   7    4    5 1
   8    4  159 1
   9    5    6 1
  10    5    7 1
  11    5  160 1
  12    6  161 1
  13    6  162 1
  14    6  163 1
  15    7  164 1
  16    8    9 2
  17    8   11 1
  18    8   17 am
  19   10   11 1
  20   10  165 1
  21   11   12 1
  22   11  166 1
  23   12   13 1
  24   12   14 1
  25   12  167 1
  26   13  168 1
  27   13  169 1
  28   13  170 1
  29   14  171 1
  30   14  172 1
  31   14  173 1
  32   15   16 2
  33   15   18 1
  34   15   22 am
  35   17   18 1
  36   17  174 1
  37   18   19 1
  38   18  175 1
  39   19  176 1
  40   19  177 1
  41   19  178 1
  42   20   21 2
  43   20   23 1
  44   20   33 am
  45   22   23 1
  46   22  179 1
  47   23   24 1
  48   23  180 1
  49   24   25 1
  50   24  181 1
  51   24  182 1
  52   25   26 1
  53   25  183 1
  54   25  184 1
  55   26   27 1
  56   26  185 1
  57   26  186 1
  58   27   28 1
  59   27  187 1
  60   28   29 2
  61   28   30 1
  62   29  188 1
  63   30  189 1
  64   30  190 1
  65   31   32 2
  66   31   34 1
  67   31   39 am
  68   33   34 1
  69   33  191 1
  70   34   35 1
  71   34  192 1
  72   35   36 1
  73   35  193 1
  74   35  194 1
  75   36  195 1
  76   37   38 2
  77   37   40 1
  78   37   45 am
  79   39   40 1
  80   39  196 1
  81   40   41 1
  82   40  197 1
  83   41   42 1
  84   41  198 1
  85   41  199 1
  86   42  200 1
  87   43   44 2
  88   43   46 1
  89   43   56 am
  90   45   46 1
  91   45  201 1
  92   46   47 1
  93   46  202 1
  94   47   48 1
  95   47  203 1
  96   47  204 1
  97   48   49 1
  98   48  205 1
  99   48  206 1
 100   49   50 1
 101   49  207 1
 102   49  208 1
 103   50   51 1
 104   50  209 1
 105   51   52 2
 106   51   53 1
 107   52  210 1
 108   53  211 1
 109   53  212 1
 110   54   55 2
 111   54   57 1
 112   54   65 am
 113   56   57 1
 114   56  213 1
 115   57   58 1
 116   57  214 1
 117   58   59 1
 118   58  215 1
 119   58  216 1
 120   59   60 1
 121   59  217 1
 122   59  218 1
 123   60   61 2
 124   60   62 1
 125   62  219 1
 126   63   64 2
 127   63   66 1
 128   63   74 am
 129   65   66 1
 130   65  220 1
 131   66   67 1
 132   66  221 1
 133   67   68 1
 134   67  222 1
 135   67  223 1
 136   68   69 1
 137   68  224 1
 138   68  225 1
 139   69   70 1
 140   69  226 1
 141   69  227 1
 142   70   71 1
 143   70  228 1
 144   70  229 1
 145   71  230 1
 146   71  231 1
 147   72   73 2
 148   72   75 1
 149   72   85 am
 150   74   75 1
 151   74  232 1
 152   75   76 1
 153   75  233 1
 154   76   77 1
 155   76  234 1
 156   76  235 1
 157   77   78 1
 158   77  236 1
 159   77  237 1
 160   78   79 1
 161   78  238 1
 162   78  239 1
 163   79   80 1
 164   79  240 1
 165   80   81 2
 166   80   82 1
 167   81  241 1
 168   82  242 1
 169   82  243 1
 170   83   84 2
 171   83   86 1
 172   83   96 am
 173   85   86 1
 174   85  244 1
 175   86   87 1
 176   86  245 1
 177   87   88 1
 178   87  246 1
 179   87  247 1
 180   88   89 1
 181   88  248 1
 182   88  249 1
 183   89   90 1
 184   89  250 1
 185   89  251 1
 186   90   91 1
 187   90  252 1
 188   91   92 2
 189   91   93 1
 190   92  253 1
 191   93  254 1
 192   93  255 1
 193   94   95 2
 194   94   97 1
 195   94  102 am
 196   96   97 1
 197   96  256 1
 198   97   98 1
 199   97  257 1
 200   98   99 1
 201   98  258 1
 202   98  259 1
 203   99  260 1
 204  100  101 2
 205  100  103 1
 206  100  107 am
 207  102  103 1
 208  102  261 1
 209  103  104 1
 210  103  262 1
 211  104  263 1
 212  104  264 1
 213  104  265 1
 214  105  106 2
 215  105  108 1
 216  105  115 am
 217  107  108 1
 218  107  266 1
 219  108  109 1
 220  108  267 1
 221  109  110 1
 222  109  268 1
 223  109  269 1
 224  110  111 2
 225  110  112 1
 226  112  270 1
 227  113  114 2
 228  113  116 1
 229  113  123 am
 230  115  116 1
 231  115  271 1
 232  116  117 1
 233  116  272 1
 234  117  118 1
 235  117  120 1
 236  117  273 1
 237  118  119 1
 238  118  274 1
 239  118  275 1
 240  119  276 1
 241  119  277 1
 242  119  278 1
 243  120  279 1
 244  120  280 1
 245  120  281 1
 246  121  122 2
 247  121  124 1
 248  121  134 am
 249  123  124 1
 250  123  282 1
 251  124  125 1
 252  124  283 1
 253  125  126 1
 254  125  284 1
 255  125  285 1
 256  126  127 ar
 257  126  131 ar
 258  127  128 ar
 259  127  286 1
 260  128  129 ar
 261  128  287 1
 262  129  130 ar
 263  129  288 1
 264  130  131 ar
 265  130  289 1
 266  131  290 1
 267  132  133 2
 268  132  135 1
 269  132  140 1
 270  134  135 1
 271  134  291 1
 272  135  136 1
 273  135  292 1
 274  136  137 1
 275  136  139 1
 276  136  293 1
 277  137  138 1
 278  137  294 1
 279  137  295 1
 280  138  296 1
 281  138  297 1
 282  138  298 1
 283  139  299 1
 284  139  300 1
 285  139  301 1
 286  140  302 1
 287  141  142 2
 288  141  157 1
 289  143  144 1
 290  143  303 1
 291  143  304 1
 292  143  305 1
 293  144  145 1
 294  144  306 1
 295  144  307 1
 296  145  146 1
 297  145  308 1
 298  145  309 1
 299  146  147 1
 300  146  310 1
 301  146  311 1
 302  147  148 1
 303  147  312 1
 304  147  313 1
 305  148  149 1
 306  148  314 1
 307  148  315 1
 308  149  150 1
 309  149  316 1
 310  149  317 1
 311  150  151 1
 312  150  318 1
 313  150  319 1
 314  151  152 1
 315  151  320 1
 316  151  321 1
 317  152  153 1
 318  152  322 1
 319  152  323 1
 320  153  154 1
 321  153  324 1
 322  153  325 1
 323  154  155 1
 324  154  326 1
 325  154  327 1
 326  155  156 1
 327  155  328 1
 328  155  329 1
 329  156  157 1
 330  156  330 1
 331  156  331 1
 332  157  332 1
 333  157  333 1

#	End of record

