#	Name: ASD04230020
#	Creating user name:	WinNT
#	Creation time:	15. 06. 2019 20:48

#	Modifying user name:	WinNT
#	Modification time:	15. 06. 2019 20:48

#	Program:	/corina/corina34_cracker 3.40 0067  02.08.2006

@<TRIPOS>MOLECULE
ASD04230020
  48   51    0    0    0
SMALL
NO_CHARGES


@<TRIPOS>ATOM
   1 C1             0.0767     1.6959     1.3749 C.ar    
   2 C2             0.1899     0.5776     2.1882 C.ar    
   3 C3             1.3693    -0.1055     2.2704 C.ar    
   4 C4             2.4821     0.3292     1.5360 C.ar    
   5 C5             2.3637     1.4428     0.6847 C.ar    
   6 C6             1.1533     2.1301     0.6219 C.ar    
   7 C7             3.7246    -0.3484     1.6416 C.2     
   8 C8             4.8373     0.2383     1.0536 C.2     
   9 C9             4.6421     1.5405     0.3905 C.2     
  10 O10            3.4098     1.8301    -0.0837 O.3     
  11 C11            6.1574    -0.4128     1.0912 C.2     
  12 N12            7.2188     0.1818     0.5112 N.am    
  13 O13            6.2900    -1.4872     1.6456 O.2     
  14 C14            8.4910    -0.3860     0.6326 C.ar    
  15 C15            8.6379    -1.7674     0.6428 C.ar    
  16 C16            9.8945    -2.3293     0.7627 C.ar    
  17 C17           11.0086    -1.5202     0.8728 C.ar    
  18 C18           10.8687    -0.1374     0.8632 C.ar    
  19 C19            9.6087     0.4300     0.7372 C.ar    
  20 N20           11.9956     0.6802     0.9750 N.3     
  21 O21            5.5609     2.3297     0.2741 O.2     
  22 C22           13.2206    -0.1242     1.0916 C.3     
  23 C23           14.4333     0.8084     1.1514 C.3     
  24 O24           14.2761     1.7170     2.2446 O.3     
  25 C25           13.0934     2.5170     2.1628 C.3     
  26 C26           11.8671     1.6017     2.1132 C.3     
  27 O27            1.0302     3.2234    -0.1772 O.3     
  28 C28           -0.2403     3.8773    -0.1908 C.3     
  29 H29           -0.8611     2.2294     1.3256 H       
  30 H30           -0.6625     0.2445     2.7618 H       
  31 H31            1.4452    -0.9793     2.9006 H       
  32 H32            3.8023    -1.2908     2.1634 H       
  33 H33            7.1002     1.0035     0.0096 H       
  34 H34            7.7688    -2.4029     0.5573 H       
  35 H35           10.0059    -3.4036     0.7708 H       
  36 H36           11.9894    -1.9625     0.9667 H       
  37 H37            9.4971     1.5042     0.7294 H       
  38 H38           13.1772    -0.7236     2.0009 H       
  39 H39           13.3087    -0.7807     0.2260 H       
  40 H40           15.3389     0.2191     1.2953 H       
  41 H41           14.5074     1.3693     0.2197 H       
  42 H42           13.0299     3.1633     3.0382 H       
  43 H43           13.1286     3.1275     1.2605 H       
  44 H44           10.9673     2.2050     1.9934 H       
  45 H45           11.8021     1.0298     3.0389 H       
  46 H46           -1.0049     3.1787    -0.5305 H       
  47 H47           -0.4829     4.2208     0.8148 H       
  48 H48           -0.2021     4.7313    -0.8671 H       
@<TRIPOS>BOND
   1    1    2 ar
   2    1    6 ar
   3    1   29 1
   4    2    3 ar
   5    2   30 1
   6    3    4 ar
   7    3   31 1
   8    4    5 ar
   9    4    7 1
  10    5    6 ar
  11    5   10 1
  12    6   27 1
  13    7    8 2
  14    7   32 1
  15    8    9 1
  16    8   11 1
  17    9   10 1
  18    9   21 2
  19   11   12 am
  20   11   13 2
  21   12   14 1
  22   12   33 1
  23   14   15 ar
  24   14   19 ar
  25   15   16 ar
  26   15   34 1
  27   16   17 ar
  28   16   35 1
  29   17   18 ar
  30   17   36 1
  31   18   19 ar
  32   18   20 1
  33   19   37 1
  34   20   22 1
  35   20   26 1
  36   22   23 1
  37   22   38 1
  38   22   39 1
  39   23   24 1
  40   23   40 1
  41   23   41 1
  42   24   25 1
  43   25   26 1
  44   25   42 1
  45   25   43 1
  46   26   44 1
  47   26   45 1
  48   27   28 1
  49   28   46 1
  50   28   47 1
  51   28   48 1

#	End of record

