#	Name: ASD01915304
#	Creating user name:	WinNT
#	Creation time:	15. 06. 2019 20:05

#	Modifying user name:	WinNT
#	Modification time:	15. 06. 2019 20:05

#	Program:	/corina/corina34_cracker 3.40 0067  02.08.2006

@<TRIPOS>MOLECULE
ASD01915304
  39   42    0    0    0
SMALL
NO_CHARGES


@<TRIPOS>ATOM
   1 N1             0.0427     1.3080    -0.0304 N.2     
   2 C2             0.1041    -0.0423    -0.0641 C.2     
   3 N3             1.3696    -0.3710    -0.0811 N.2     
   4 O4             2.0595     0.6263    -0.0614 O.3     
   5 C5             1.2871     1.7168    -0.0292 C.2     
   6 C6             1.7592     3.1475     0.0023 C.3     
   7 C7            -1.0492    -0.9766    -0.0785 C.ar    
   8 C8            -0.8337    -2.3523    -0.1139 C.ar    
   9 C9            -1.9109    -3.2173    -0.1272 C.ar    
  10 C10           -3.2018    -2.7185    -0.1054 C.ar    
  11 C11           -3.4203    -1.3530    -0.0703 C.ar    
  12 C12           -2.3511    -0.4806    -0.0509 C.ar    
  13 N13            2.8377     3.2631     0.9721 N.am    
  14 C14            4.1274     3.7260     0.4235 C.3     
  15 S15            3.6144     4.6635    -1.0752 S.3     
  16 C16            2.1787     3.5639    -1.4259 C.3     
  17 C17            2.6710     2.9691     2.2768 C.2     
  18 O18            1.5642     2.6949     2.7022 O.2     
  19 C19            3.8227     2.9798     3.1835 C.2     
  20 Cl20          -1.6449    -4.9322    -0.1719 Cl      
  21 C21            3.7652     2.8254     4.5400 C.2     
  22 C22            4.9981     2.8768     5.1458 C.2     
  23 C23            6.0308     3.0667     4.3163 C.2     
  24 S24            5.5004     3.1857     2.6990 S.3     
  25 C25            7.4707     3.1574     4.7517 C.3     
  26 H26            0.9319     3.7817     0.3209 H       
  27 H27            0.1735    -2.7419    -0.1312 H       
  28 H28           -4.0414    -3.3977    -0.1163 H       
  29 H29           -4.4296    -0.9690    -0.0537 H       
  30 H30           -2.5233     0.5852    -0.0230 H       
  31 H31            4.6371     4.3788     1.1323 H       
  32 H32            4.7586     2.8796     0.1529 H       
  33 H33            2.4834     2.6973    -2.0128 H       
  34 H34            1.3790     4.1111    -1.9250 H       
  35 H35            2.8428     2.6780     5.0822 H       
  36 H36            5.1240     2.7720     6.2134 H       
  37 H37            7.9155     2.1623     4.7456 H       
  38 H38            8.0177     3.8041     4.0657 H       
  39 H39            7.5203     3.5713     5.7589 H       
@<TRIPOS>BOND
   1    1    2 1
   2    1    5 2
   3    2    3 2
   4    2    7 1
   5    3    4 1
   6    4    5 1
   7    5    6 1
   8    6   13 1
   9    6   16 1
  10    6   26 1
  11    7    8 ar
  12    7   12 ar
  13    8    9 ar
  14    8   27 1
  15    9   10 ar
  16    9   20 1
  17   10   11 ar
  18   10   28 1
  19   11   12 ar
  20   11   29 1
  21   12   30 1
  22   13   14 1
  23   13   17 am
  24   14   15 1
  25   14   31 1
  26   14   32 1
  27   15   16 1
  28   16   33 1
  29   16   34 1
  30   17   18 2
  31   17   19 1
  32   19   21 2
  33   19   24 1
  34   21   22 1
  35   21   35 1
  36   22   23 2
  37   22   36 1
  38   23   24 1
  39   23   25 1
  40   25   37 1
  41   25   38 1
  42   25   39 1

#	End of record

