#	Name: ASD05250094
#	Creating user name:	WinNT
#	Creation time:	15. 06. 2019 20:58

#	Modifying user name:	WinNT
#	Modification time:	15. 06. 2019 20:58

#	Program:	/corina/corina34_cracker 3.40 0067  02.08.2006

@<TRIPOS>MOLECULE
ASD05250094
  32   33    0    0    0
SMALL
NO_CHARGES


@<TRIPOS>ATOM
   1 C1            -0.0167     1.3835     0.0096 C.ar    
   2 C2             0.0021    -0.0041     0.0020 C.ar    
   3 C3            -1.1874    -0.7188     0.0091 C.ar    
   4 C4            -2.3996    -0.0499     0.0238 C.ar    
   5 C5            -2.4239     1.3468     0.0320 C.ar    
   6 C6            -1.2237     2.0616     0.0306 C.ar    
   7 C7            -3.7114     2.0638     0.0472 C.2     
   8 C8            -3.7322     3.4067     0.0550 C.2     
   9 C9            -5.0190     4.1232     0.0702 C.ar    
  10 C10           -5.0426     5.5214     0.0784 C.ar    
  11 C11           -6.2474     6.1879     0.0922 C.ar    
  12 C12           -7.4407     5.4718     0.0979 C.ar    
  13 C13           -7.4211     4.0802     0.0902 C.ar    
  14 C14           -6.2201     3.4070     0.0707 C.ar    
  15 O15            1.1515     2.0778     0.0022 O.3     
  16 O16           -1.1624    -2.0776     0.0011 O.3     
  17 S17           -8.9800     6.3289     0.1155 S.3     
  18 C18          -10.1965     4.9832     0.1178 C.3     
  19 H19            0.9456    -0.5295    -0.0098 H       
  20 H20           -3.3248    -0.6070     0.0285 H       
  21 H21           -1.2373     3.1415     0.0372 H       
  22 H22           -4.6382     1.5093     0.0520 H       
  23 H23           -2.8054     3.9612     0.0502 H       
  24 H24           -4.1169     6.0778     0.0744 H       
  25 H25           -6.2664     7.2677     0.0989 H       
  26 H26           -8.3491     3.5277     0.0951 H       
  27 H27           -6.2056     2.3271     0.0648 H       
  28 H28            1.4812     2.2835    -0.8833 H       
  29 H29           -1.1469    -2.4758     0.8821 H       
  30 H30          -10.0663     4.3742    -0.7768 H       
  31 H31          -10.0516     4.3641     1.0031 H       
  32 H32          -11.2024     5.4028     0.1285 H       
@<TRIPOS>BOND
   1    1    2 ar
   2    1   15 1
   3    1    6 ar
   4    2    3 ar
   5    2   19 1
   6    3    4 ar
   7    3   16 1
   8    4    5 ar
   9    4   20 1
  10    5    6 ar
  11    5    7 1
  12    6   21 1
  13    7    8 2
  14    7   22 1
  15    8    9 1
  16    8   23 1
  17    9   10 ar
  18    9   14 ar
  19   10   11 ar
  20   10   24 1
  21   11   12 ar
  22   11   25 1
  23   12   13 ar
  24   12   17 1
  25   13   14 ar
  26   13   26 1
  27   14   27 1
  28   15   28 1
  29   16   29 1
  30   17   18 1
  31   18   30 1
  32   18   31 1
  33   18   32 1

#	End of record

