#	Name: ASD05740084
#	Creating user name:	WinNT
#	Creation time:	15. 06. 2019 21:02

#	Modifying user name:	WinNT
#	Modification time:	15. 06. 2019 21:02

#	Program:	/corina/corina34_cracker 3.40 0067  02.08.2006

@<TRIPOS>MOLECULE
ASD05740084
  46   49    0    0    0
SMALL
NO_CHARGES


@<TRIPOS>ATOM
   1 C1            -0.0184     1.5028     0.0103 C.3     
   2 C2             1.2180    -0.6978    -0.0133 C.2     
   3 C3             1.2115    -2.0905    -0.0207 C.2     
   4 C4             0.0021    -0.0041     0.0020 C.2     
   5 C5            -1.1675    -0.7142     0.0098 C.2     
   6 C6            -1.1299    -2.1149     0.0024 C.2     
   7 O7             0.0462    -2.7677    -0.0128 O.3     
   8 C8            -2.4905     0.0071     0.0268 C.3     
   9 C9            -3.0049     0.1464    -1.3828 C.ar    
  10 C10           -2.7657     1.3021    -2.1153 C.ar    
  11 O11           -2.1726    -2.7477     0.0094 O.2     
  12 C12           -4.1801    -0.7104    -3.2846 C.ar    
  13 N13           -3.9352     0.4092    -3.9462 N.ar    
  14 C14           -3.2498     1.3984    -3.4038 C.ar    
  15 N15           -4.9066    -1.7278    -3.8955 N.am    
  16 S16           -5.4608    -1.5347    -5.4440 S.o2    
  17 O17           -6.1239    -2.7439    -5.7866 O.2     
  18 O18           -6.0923    -0.2625    -5.4885 O.2     
  19 C19            2.5567    -2.4949    -0.0353 C.2     
  20 C20            3.3136    -1.3675    -0.0362 C.2     
  21 O21            2.5076    -0.2933    -0.0185 O.3     
  22 O22            4.6669    -1.3319    -0.0484 O.3     
  23 C23            5.2716    -0.1188    -0.0475 C.2     
  24 N24            6.5528     0.0715    -0.0583 N.2     
  25 S25            4.4541     1.3827    -0.0394 S.3     
  26 C26            5.9964     2.2342    -0.0437 C.2     
  27 C27            6.9714     1.3235    -0.0554 C.2     
  28 C28           -3.7217    -0.8768    -1.9793 C.ar    
  29 F29           -3.9727    -2.0207    -1.3056 F       
  30 N30           -4.1344    -1.4331    -6.4302 N.am    
  31 C31           -3.2413    -2.5850    -6.5777 C.3     
  32 H32            1.0042     1.8801     0.0026 H       
  33 H33           -0.5455     1.8639    -0.8728 H       
  34 H34           -0.5286     1.8543     0.9071 H       
  35 H35           -3.2066    -0.5612     0.6204 H       
  36 H36           -2.3594     0.9964     0.4652 H       
  37 H37           -2.2066     2.1174    -1.6805 H       
  38 H38           -3.0657     2.2955    -3.9763 H       
  39 H39           -5.0885    -2.5502    -3.4143 H       
  40 H40            2.9207    -3.5117    -0.0441 H       
  41 H41            6.1294     3.3060    -0.0411 H       
  42 H42            8.0183     1.5890    -0.0604 H       
  43 H43           -3.9488    -0.6110    -6.9103 H       
  44 H44           -2.8266    -2.8501    -5.6051 H       
  45 H45           -3.8018    -3.4306    -6.9764 H       
  46 H46           -2.4310    -2.3314    -7.2612 H       
@<TRIPOS>BOND
   1    1    4 1
   2    1   32 1
   3    1   33 1
   4    1   34 1
   5    2    3 2
   6    2    4 1
   7    2   21 1
   8    3   19 1
   9    3    7 1
  10    4    5 2
  11    5    6 1
  12    5    8 1
  13    6    7 1
  14    6   11 2
  15    8    9 1
  16    8   35 1
  17    8   36 1
  18    9   10 ar
  19    9   28 ar
  20   10   14 ar
  21   10   37 1
  22   12   13 ar
  23   12   15 1
  24   12   28 ar
  25   13   14 ar
  26   14   38 1
  27   15   16 am
  28   15   39 1
  29   16   17 2
  30   16   18 2
  31   16   30 am
  32   19   20 2
  33   19   40 1
  34   20   21 1
  35   20   22 1
  36   22   23 1
  37   23   24 2
  38   23   25 1
  39   24   27 1
  40   25   26 1
  41   26   27 2
  42   26   41 1
  43   27   42 1
  44   28   29 1
  45   30   31 1
  46   30   43 1
  47   31   44 1
  48   31   45 1
  49   31   46 1

#	End of record

