#	Name: ASD03370003
#	Creating user name:	WinNT
#	Creation time:	15. 06. 2019 20:40

#	Modifying user name:	WinNT
#	Modification time:	15. 06. 2019 20:40

#	Program:	/corina/corina34_cracker 3.40 0067  02.08.2006

@<TRIPOS>MOLECULE
ASD03370003
  42   44    0    0    0
SMALL
NO_CHARGES


@<TRIPOS>ATOM
   1 C1            -0.0578     1.7121    -0.7712 C.3     
   2 N2             0.4539     0.4483    -0.2225 N.am    
   3 C3            -0.0575    -0.7544    -0.8816 C.3     
   4 C4            -0.2699    -0.4508    -2.3920 C.3     
   5 S5            -1.0062     1.2336    -2.2678 S.3     
   6 C6             1.3661     2.1737    -1.0765 C.3     
   7 C7             1.7191     0.8504    -0.4518 C.2     
   8 C8             1.0603    -0.4234    -3.1475 C.3     
   9 C9            -1.2477    -1.4411    -3.0275 C.3     
  10 O10            2.7877     0.3218    -0.2290 O.2     
  11 N11            1.6771     2.2700    -2.5048 N.am    
  12 C12            2.7530     2.9707    -2.9145 C.2     
  13 C13            3.0729     3.0697    -4.3838 C.3     
  14 O14            3.4638     3.5215    -2.1007 O.2     
  15 O15            4.2509     3.8587    -4.5627 O.3     
  16 C16            4.6792     4.0474    -5.8386 C.ar    
  17 C17            5.8162     4.8030    -6.0852 C.ar    
  18 C18            6.2496     4.9934    -7.3830 C.ar    
  19 C19            5.5511     4.4316    -8.4358 C.ar    
  20 C20            4.4173     3.6784    -8.1926 C.ar    
  21 C21            3.9834     3.4800    -6.8962 C.ar    
  22 C22            0.9356    -1.8772    -0.7263 C.2     
  23 O23            1.9029    -1.7344    -0.0165 O.2     
  24 O24            0.7456    -3.0360    -1.3766 O.3     
  25 H25           -0.6032     2.3394    -0.0661 H       
  26 H26           -1.0062    -1.0438    -0.4298 H       
  27 H27            1.6899     3.0423    -0.5030 H       
  28 H28            1.4780    -1.4295    -3.1844 H       
  29 H29            0.8943    -0.0615    -4.1622 H       
  30 H30            1.7561     0.2403    -2.6343 H       
  31 H31           -2.2113    -1.3752    -2.5223 H       
  32 H32           -1.3737    -1.2006    -4.0832 H       
  33 H33           -0.8547    -2.4531    -2.9298 H       
  34 H34            1.1086     1.8294    -3.1557 H       
  35 H35            3.2398     2.0710    -4.7874 H       
  36 H36            2.2390     3.5382    -4.9065 H       
  37 H37            6.3620     5.2424    -5.2633 H       
  38 H38            7.1345     5.5818    -7.5756 H       
  39 H39            5.8915     4.5815    -9.4497 H       
  40 H40            3.8730     3.2412    -9.0166 H       
  41 H41            3.0977     2.8916    -6.7068 H       
  42 H42            1.4095    -3.7268    -1.2458 H       
@<TRIPOS>BOND
   1    1    2 1
   2    1    6 1
   3    1    5 1
   4    1   25 1
   5    2    3 1
   6    2    7 am
   7    3    4 1
   8    3   22 1
   9    3   26 1
  10    4    5 1
  11    4    8 1
  12    4    9 1
  13    6    7 1
  14    6   11 1
  15    6   27 1
  16    7   10 2
  17    8   28 1
  18    8   29 1
  19    8   30 1
  20    9   31 1
  21    9   32 1
  22    9   33 1
  23   11   12 am
  24   11   34 1
  25   12   13 1
  26   12   14 2
  27   13   15 1
  28   13   35 1
  29   13   36 1
  30   15   16 1
  31   16   17 ar
  32   16   21 ar
  33   17   18 ar
  34   17   37 1
  35   18   19 ar
  36   18   38 1
  37   19   20 ar
  38   19   39 1
  39   20   21 ar
  40   20   40 1
  41   21   41 1
  42   22   23 2
  43   22   24 1
  44   24   42 1

#	End of record

