#	Name: ASD05143340
#	Creating user name:	WinNT
#	Creation time:	15. 06. 2019 20:57

#	Modifying user name:	WinNT
#	Modification time:	15. 06. 2019 20:57

#	Program:	/corina/corina34_cracker 3.40 0067  02.08.2006

@<TRIPOS>MOLECULE
ASD05143340
  50   53    0    0    0
SMALL
NO_CHARGES


@<TRIPOS>ATOM
   1 C1            -0.0163     1.3506     0.0095 C.2     
   2 N2            -0.0076     0.0140     0.2305 N.pl3   
   3 S3            -1.6348    -0.4749     0.1566 S.3     
   4 C4            -2.2491     1.1568    -0.1704 C.2     
   5 N5            -1.1573     1.9326    -0.1895 N.2     
   6 N6            -3.5116     1.5276    -0.3516 N.2     
   7 C7            -3.8100     2.8372    -0.5955 C.ar    
   8 C8            -3.8506     3.3163    -1.9098 C.ar    
   9 C9             1.1071    -0.7952     0.4691 C.ar    
  10 C10            1.7136    -1.4784    -0.5843 C.ar    
  11 C11            1.6170    -0.9163     1.7543 C.ar    
  12 C12            2.7191    -1.7170     1.9872 C.ar    
  13 C13            3.3162    -2.3985     0.9430 C.ar    
  14 C14            2.8177    -2.2785    -0.3415 C.ar    
  15 C15            1.2405     2.1251     0.0016 C.ar    
  16 C16            1.2059     3.5234    -0.0844 C.ar    
  17 C17            2.4698     1.4690     0.0856 C.ar    
  18 C18            3.6402     2.1980     0.0778 C.ar    
  19 C19            3.6020     3.5791    -0.0131 C.ar    
  20 C20            2.3917     4.2408    -0.0910 C.ar    
  21 C21           -4.4157     5.4952    -1.0904 C.ar    
  22 C22           -4.3829     5.0272     0.2113 C.ar    
  23 C23           -4.0822     3.7051     0.4657 C.ar    
  24 O24            1.2221    -1.3598    -1.8464 O.3     
  25 C25            1.8943    -2.0887    -2.8755 C.3     
  26 O26            0.0163     4.1723    -0.1614 O.3     
  27 C27            0.0594     5.5981    -0.2466 C.3     
  28 C28           -4.1530     4.6410    -2.1477 C.ar    
  29 C29           -4.0476     3.1978     1.8843 C.3     
  30 Cl30          -3.5210     2.2467    -3.2368 Cl      
  31 H31            1.1528    -0.3849     2.5719 H       
  32 H32            3.1152    -1.8103     2.9876 H       
  33 H33            4.1775    -3.0227     1.1300 H       
  34 H34            3.2867    -2.8125    -1.1547 H       
  35 H35            2.5041     0.3919     0.1571 H       
  36 H36            4.5908     1.6896     0.1432 H       
  37 H37            4.5234     4.1425    -0.0186 H       
  38 H38            2.3698     5.3183    -0.1621 H       
  39 H39           -4.6522     6.5313    -1.2828 H       
  40 H40           -4.5890     5.6998     1.0307 H       
  41 H41            2.9325    -1.7616    -2.9335 H       
  42 H42            1.8612    -3.1540    -2.6472 H       
  43 H43            1.4020    -1.9063    -3.8307 H       
  44 H44            0.5556     6.0001     0.6367 H       
  45 H45            0.6117     5.8922    -1.1391 H       
  46 H46           -0.9564     5.9896    -0.3025 H       
  47 H47           -4.1845     5.0127    -3.1612 H       
  48 H48           -5.0370     2.8368     2.1652 H       
  49 H49           -3.3281     2.3827     1.9613 H       
  50 H50           -3.7529     4.0070     2.5525 H       
@<TRIPOS>BOND
   1    1    2 1
   2    1   15 1
   3    1    5 2
   4    2    3 1
   5    2    9 1
   6    3    4 1
   7    4    5 1
   8    4    6 2
   9    6    7 1
  10    7    8 ar
  11    7   23 ar
  12    8   28 ar
  13    8   30 1
  14    9   10 ar
  15    9   11 ar
  16   10   24 1
  17   10   14 ar
  18   11   12 ar
  19   11   31 1
  20   12   13 ar
  21   12   32 1
  22   13   14 ar
  23   13   33 1
  24   14   34 1
  25   15   16 ar
  26   15   17 ar
  27   16   26 1
  28   16   20 ar
  29   17   18 ar
  30   17   35 1
  31   18   19 ar
  32   18   36 1
  33   19   20 ar
  34   19   37 1
  35   20   38 1
  36   21   22 ar
  37   21   28 ar
  38   21   39 1
  39   22   23 ar
  40   22   40 1
  41   23   29 1
  42   24   25 1
  43   25   41 1
  44   25   42 1
  45   25   43 1
  46   26   27 1
  47   27   44 1
  48   27   45 1
  49   27   46 1
  50   28   47 1
  51   29   48 1
  52   29   49 1
  53   29   50 1

#	End of record

