#	Name: ASD01410916
#	Creating user name:	WinNT
#	Creation time:	15. 06. 2019 19:18

#	Modifying user name:	WinNT
#	Modification time:	15. 06. 2019 19:18

#	Program:	/corina/corina34_cracker 3.40 0067  02.08.2006

@<TRIPOS>MOLECULE
ASD01410916
  69   71    0    0    0
SMALL
NO_CHARGES


@<TRIPOS>ATOM
   1 S1             0.4745     2.1300    -0.3106 S.3     
   2 C2             0.0776     0.4335    -0.0756 C.2     
   3 C3             1.2325    -0.3134    -0.0585 C.2     
   4 C4             2.3842     0.4174    -0.2235 C.2     
   5 C5             2.1917     1.7600    -0.3766 C.2     
   6 C6             3.2340     2.7240    -0.5637 C.1     
   7 C7             4.0885     3.5143    -0.7171 C.1     
   8 C8             5.1599     4.5052    -0.9094 C.3     
   9 C9             6.5159     3.7966    -0.9100 C.3     
  10 C10            4.9581     5.2215    -2.2462 C.3     
  11 C11           -1.2296    -0.0842     0.0736 C.2     
  12 N12            1.2343    -1.6985     0.1129 N.am    
  13 O13           -2.2828     0.7561     0.1586 O.3     
  14 O14           -1.4055    -1.2876     0.1256 O.2     
  15 C15            1.1939    -2.2697     1.4613 C.3     
  16 C16            1.2732    -2.5105    -0.9621 C.2     
  17 C17            1.1868    -4.0042    -0.7816 C.3     
  18 O18            1.3778    -2.0392    -2.0746 O.2     
  19 C19            2.5943    -2.3606     2.0105 C.2     
  20 C20            0.9288    -4.6675    -2.1360 C.3     
  21 C21            2.0750    -4.3349    -3.0933 C.3     
  22 C22            3.3914    -4.8555    -2.5130 C.3     
  23 C23            3.6495    -4.1923    -1.1586 C.3     
  24 C24            2.5033    -4.5248    -0.2013 C.3     
  25 C25            4.5377    -4.5230    -3.4704 C.3     
  26 N26            2.8060    -2.8883     3.2325 N.am    
  27 O27            3.5308    -1.9588     1.3530 O.2     
  28 C28            5.1192     5.5276     0.2282 C.3     
  29 C29            4.1656    -2.9837     3.7814 C.3     
  30 C30            4.1889    -2.3150     5.1595 C.3     
  31 C31            3.1085    -2.9412     6.0442 C.3     
  32 C32            1.7328    -2.7057     5.4163 C.3     
  33 C33            1.6811    -3.3737     4.0434 C.3     
  34 H34            3.3648    -0.0350    -0.2312 H       
  35 H35            6.5449     3.0683    -1.7204 H       
  36 H36            7.3092     4.5304    -1.0524 H       
  37 H37            6.6596     3.2863     0.0424 H       
  38 H38            3.9921     5.7263    -2.2458 H       
  39 H39            5.7515     5.9553    -2.3886 H       
  40 H40            4.9871     4.4931    -3.0566 H       
  41 H41           -3.1349     0.3100     0.2589 H       
  42 H42            0.5907    -1.6324     2.1080 H       
  43 H43            0.7542    -3.2662     1.4208 H       
  44 H44            0.3702    -4.2411    -0.0995 H       
  45 H45            0.8662    -5.7478    -2.0054 H       
  46 H46           -0.0091    -4.2965    -2.5494 H       
  47 H47            1.8911    -4.8074    -4.0582 H       
  48 H48            2.1375    -3.2546    -3.2239 H       
  49 H49            3.3289    -5.9359    -2.3825 H       
  50 H50            4.5874    -4.5632    -0.7452 H       
  51 H51            3.7120    -3.1119    -1.2892 H       
  52 H52            2.6871    -4.0523     0.7636 H       
  53 H53            2.4407    -5.6052    -0.0708 H       
  54 H54            4.6002    -3.4426    -3.6009 H       
  55 H55            5.4755    -4.8939    -3.0570 H       
  56 H56            4.3538    -4.9955    -4.4353 H       
  57 H57            5.2629     5.0173     1.1806 H       
  58 H58            5.9125     6.2613     0.0858 H       
  59 H59            4.1531     6.0324     0.2286 H       
  60 H60            4.4475    -4.0320     3.8791 H       
  61 H61            4.8644    -2.4756     3.1169 H       
  62 H62            5.1662    -2.4628     5.6191 H       
  63 H63            3.9956    -1.2480     5.0495 H       
  64 H64            3.2882    -4.0126     6.1337 H       
  65 H65            3.1392    -2.4843     7.0334 H       
  66 H66            0.9620    -3.1316     6.0587 H       
  67 H67            1.5627    -1.6350     5.3039 H       
  68 H68            0.7412    -3.1228     3.5518 H       
  69 H69            1.7563    -4.4545     4.1629 H       
@<TRIPOS>BOND
   1    1    2 1
   2    1    5 1
   3    2    3 2
   4    2   11 1
   5    3    4 1
   6    3   12 1
   7    4    5 2
   8    4   34 1
   9    5    6 1
  10    6    7 3
  11    7    8 1
  12    8    9 1
  13    8   10 1
  14    8   28 1
  15    9   35 1
  16    9   36 1
  17    9   37 1
  18   10   38 1
  19   10   39 1
  20   10   40 1
  21   11   13 1
  22   11   14 2
  23   12   15 1
  24   12   16 am
  25   13   41 1
  26   15   19 1
  27   15   42 1
  28   15   43 1
  29   16   17 1
  30   16   18 2
  31   17   20 1
  32   17   24 1
  33   17   44 1
  34   19   26 am
  35   19   27 2
  36   20   21 1
  37   20   45 1
  38   20   46 1
  39   21   22 1
  40   21   47 1
  41   21   48 1
  42   22   23 1
  43   22   25 1
  44   22   49 1
  45   23   24 1
  46   23   50 1
  47   23   51 1
  48   24   52 1
  49   24   53 1
  50   25   54 1
  51   25   55 1
  52   25   56 1
  53   26   29 1
  54   26   33 1
  55   28   57 1
  56   28   58 1
  57   28   59 1
  58   29   30 1
  59   29   60 1
  60   29   61 1
  61   30   31 1
  62   30   62 1
  63   30   63 1
  64   31   32 1
  65   31   64 1
  66   31   65 1
  67   32   33 1
  68   32   66 1
  69   32   67 1
  70   33   68 1
  71   33   69 1

#	End of record

