#	Name: ASD01510102
#	Creating user name:	WinNT
#	Creation time:	15. 06. 2019 19:21

#	Modifying user name:	WinNT
#	Modification time:	15. 06. 2019 19:21

#	Program:	/corina/corina34_cracker 3.40 0067  02.08.2006

@<TRIPOS>MOLECULE
ASD01510102
  51   53    0    0    0
SMALL
NO_CHARGES


@<TRIPOS>ATOM
   1 C1            -2.8630    -6.2026     0.3067 C.3     
   2 C2            -3.4169    -6.3857    -1.1077 C.3     
   3 C3            -2.2903    -6.2933    -2.1043 C.2     
   4 O4            -1.1561    -6.1001    -1.7210 O.2     
   5 N5            -2.5432    -6.4255    -3.4215 N.am    
   6 C6            -1.5236    -6.2357    -4.3476 C.ar    
   7 C7            -1.7457    -6.4766    -5.7039 C.ar    
   8 C8            -0.7034    -6.2742    -6.5894 C.ar    
   9 N9             0.4670    -5.8607    -6.1284 N.ar    
  10 C10            0.6494    -5.6398    -4.8340 C.ar    
  11 N11           -0.3257    -5.8172    -3.9545 N.ar    
  12 S12            2.2258    -5.0907    -4.2699 S.3     
  13 C13            3.1354    -5.1722    -5.7768 C.ar    
  14 C14            3.4397    -4.0113    -6.4795 C.ar    
  15 C15            4.1573    -4.1216    -7.6596 C.ar    
  16 C16            4.5481    -5.3788    -8.1018 C.ar    
  17 N17            4.2426    -6.4668    -7.4100 N.ar    
  18 C18            3.5642    -6.4003    -6.2768 C.ar    
  19 O19            3.2726    -7.5404    -5.6000 O.3     
  20 C20            3.7291    -8.7684    -6.1707 C.3     
  21 N21            5.2697    -5.4974    -9.2871 N.3     
  22 C22            5.5828    -6.9042    -9.5745 C.3     
  23 C23            6.3044    -6.9986   -10.9209 C.3     
  24 N24            7.5294    -6.1881   -10.8752 N.3     
  25 C25            7.2163    -4.7813   -10.5878 C.3     
  26 C26            6.4947    -4.6869    -9.2414 C.3     
  27 C27            8.2905    -6.3132   -12.1254 C.3     
  28 H28           -2.1301    -6.9824     0.5136 H       
  29 H29           -2.3865    -5.2256     0.3866 H       
  30 H30           -3.6779    -6.2695     1.0275 H       
  31 H31           -3.8935    -7.3628    -1.1876 H       
  32 H32           -4.1499    -5.6060    -1.3146 H       
  33 H33           -3.4365    -6.6530    -3.7234 H       
  34 H34           -2.7101    -6.8139    -6.0541 H       
  35 H35           -0.8421    -6.4518    -7.6456 H       
  36 H36            3.1235    -3.0455    -6.1138 H       
  37 H37            4.4096    -3.2397    -8.2295 H       
  38 H38            4.8156    -8.7479    -6.2555 H       
  39 H39            3.4302    -9.5993    -5.5317 H       
  40 H40            3.2898    -8.8946    -7.1602 H       
  41 H41            6.2255    -7.3015    -8.7889 H       
  42 H42            4.6591    -7.4813    -9.6158 H       
  43 H43            6.5635    -8.0380   -11.1226 H       
  44 H44            5.6515    -6.6265   -11.7104 H       
  45 H45            8.1400    -4.2042   -10.5465 H       
  46 H46            6.5736    -4.3840   -11.3734 H       
  47 H47            6.2357    -3.6475    -9.0397 H       
  48 H48            7.1476    -5.0590    -8.4519 H       
  49 H49            7.6772    -5.9728   -12.9597 H       
  50 H50            9.1919    -5.7034   -12.0646 H       
  51 H51            8.5671    -7.3562   -12.2796 H       
@<TRIPOS>BOND
   1    1    2 1
   2    1   28 1
   3    1   29 1
   4    1   30 1
   5    2    3 1
   6    2   31 1
   7    2   32 1
   8    3    4 2
   9    3    5 am
  10    5    6 1
  11    5   33 1
  12    6    7 ar
  13    6   11 ar
  14    7    8 ar
  15    7   34 1
  16    8    9 ar
  17    8   35 1
  18    9   10 ar
  19   10   11 ar
  20   10   12 1
  21   12   13 1
  22   13   14 ar
  23   13   18 ar
  24   14   15 ar
  25   14   36 1
  26   15   16 ar
  27   15   37 1
  28   16   17 ar
  29   16   21 1
  30   17   18 ar
  31   18   19 1
  32   19   20 1
  33   20   38 1
  34   20   39 1
  35   20   40 1
  36   21   22 1
  37   21   26 1
  38   22   23 1
  39   22   41 1
  40   22   42 1
  41   23   24 1
  42   23   43 1
  43   23   44 1
  44   24   25 1
  45   24   27 1
  46   25   26 1
  47   25   45 1
  48   25   46 1
  49   26   47 1
  50   26   48 1
  51   27   49 1
  52   27   50 1
  53   27   51 1

#	End of record

