#	Name: ASD03330892
#	Creating user name:	WinNT
#	Creation time:	15. 06. 2019 20:38

#	Modifying user name:	WinNT
#	Modification time:	15. 06. 2019 20:38

#	Program:	/corina/corina34_cracker 3.40 0067  02.08.2006

@<TRIPOS>MOLECULE
ASD03330892
  63   66    0    0    0
SMALL
NO_CHARGES


@<TRIPOS>ATOM
   1 N1            -0.2678     1.5227    -0.2651 N.pl3   
   2 C2            -0.1621     0.1712    -0.1578 C.2     
   3 C3             1.1262    -0.6032    -0.0582 C.3     
   4 N4             1.9949     0.0331     0.9444 N.3     
   5 C5             2.8349     1.0677     0.3382 C.3     
   6 C6             2.1013     1.7677    -0.8023 C.3     
   7 C7             0.8518     2.4685    -0.2620 C.3     
   8 C8            -1.5956     1.8222    -0.3623 C.2     
   9 N9            -2.2826     0.7055    -0.2994 N.2     
  10 C10           -1.4270    -0.3324    -0.1702 C.2     
  11 C11           -1.7968    -1.7547    -0.0629 C.2     
  12 O12           -0.9308    -2.6014     0.0491 O.2     
  13 N13           -3.0945    -2.1174    -0.0890 N.am    
  14 C14            2.8133    -0.9672     1.6427 C.3     
  15 C15           -4.8069    -3.7509    -0.6263 C.2     
  16 C16           -3.4622    -3.5315     0.0176 C.3     
  17 C17           -3.5320    -3.9305     1.4930 C.3     
  18 C18           -3.9560    -5.3963     1.6055 C.3     
  19 O19           -5.5345    -2.8062    -0.8477 O.2     
  20 N20           -5.2009    -4.9969    -0.9561 N.am    
  21 C21           -6.5393    -5.2197    -1.5086 C.3     
  22 C22           -2.1563    -3.7466     2.1368 C.3     
  23 C23           -4.5537    -3.0474     2.2123 C.3     
  24 C24           -1.4041     4.2983    -0.1748 C.ar    
  25 C25           -1.9398     5.5648    -0.3173 C.ar    
  26 C26           -3.2394     5.7214    -0.7978 C.ar    
  27 C27           -3.9952     4.6072    -1.1328 C.ar    
  28 C28           -3.4656     3.3417    -0.9924 C.ar    
  29 C29           -2.1654     3.1786    -0.5124 C.ar    
  30 O30           -3.5285     7.0545    -0.8443 O.3     
  31 C31           -2.2571     7.7266    -0.7778 C.3     
  32 O32           -1.4170     6.8004    -0.0641 O.3     
  33 F33           -1.7545     7.9560    -2.0631 F       
  34 F34           -2.3731     8.9291    -0.0722 F       
  35 H35            0.9126    -1.6287     0.2431 H       
  36 H36            1.6269    -0.6036    -1.0264 H       
  37 H37            3.1013     1.8031     1.0974 H       
  38 H38            3.7445     0.6089    -0.0494 H       
  39 H39            2.7613     2.5050    -1.2592 H       
  40 H40            1.8087     1.0314    -1.5508 H       
  41 H41            0.6098     3.3217    -0.8957 H       
  42 H42            1.0372     2.8104     0.7562 H       
  43 H43           -3.7851    -1.4422    -0.1783 H       
  44 H44            3.3869    -1.5401     0.9141 H       
  45 H45            3.4957    -0.4642     2.3279 H       
  46 H46            2.1646    -1.6395     2.2042 H       
  47 H47           -2.7133    -4.1408    -0.4884 H       
  48 H48           -3.2062    -6.0288     1.1303 H       
  49 H49           -4.0474    -5.6684     2.6570 H       
  50 H50           -4.9164    -5.5358     1.1093 H       
  51 H51           -4.5983    -5.7461    -0.8276 H       
  52 H52           -7.2889    -4.8880    -0.7901 H       
  53 H53           -6.6488    -4.6552    -2.4345 H       
  54 H54           -6.6761    -6.2817    -1.7122 H       
  55 H55           -1.8543    -2.7024     2.0567 H       
  56 H56           -2.2061    -4.0309     3.1879 H       
  57 H57           -1.4284    -4.3757     1.6244 H       
  58 H58           -5.5339    -3.1784     1.7537 H       
  59 H59           -4.6035    -3.3317     3.2634 H       
  60 H60           -4.2517    -2.0032     2.1322 H       
  61 H61           -0.3961     4.1758     0.1931 H       
  62 H62           -5.0015     4.7314    -1.5048 H       
  63 H63           -4.0572     2.4768    -1.2539 H       
@<TRIPOS>BOND
   1    1    2 1
   2    1    7 1
   3    1    8 1
   4    2    3 1
   5    2   10 2
   6    3    4 1
   7    3   35 1
   8    3   36 1
   9    4    5 1
  10    4   14 1
  11    5    6 1
  12    5   37 1
  13    5   38 1
  14    6    7 1
  15    6   39 1
  16    6   40 1
  17    7   41 1
  18    7   42 1
  19    8    9 2
  20    8   29 1
  21    9   10 1
  22   10   11 1
  23   11   12 2
  24   11   13 am
  25   13   16 1
  26   13   43 1
  27   14   44 1
  28   14   45 1
  29   14   46 1
  30   15   19 2
  31   15   20 am
  32   15   16 1
  33   16   17 1
  34   16   47 1
  35   17   18 1
  36   17   22 1
  37   17   23 1
  38   18   48 1
  39   18   49 1
  40   18   50 1
  41   20   21 1
  42   20   51 1
  43   21   52 1
  44   21   53 1
  45   21   54 1
  46   22   55 1
  47   22   56 1
  48   22   57 1
  49   23   58 1
  50   23   59 1
  51   23   60 1
  52   24   25 ar
  53   24   29 ar
  54   24   61 1
  55   25   26 ar
  56   25   32 1
  57   26   27 ar
  58   26   30 1
  59   27   28 ar
  60   27   62 1
  61   28   29 ar
  62   28   63 1
  63   30   31 1
  64   31   32 1
  65   31   33 1
  66   31   34 1

#	End of record

