#	Name: ASD00431102
#	Creating user name:	WinNT
#	Creation time:	15. 06. 2019 18:35

#	Modifying user name:	WinNT
#	Modification time:	15. 06. 2019 18:35

#	Program:	/corina/corina34_cracker 3.40 0067  02.08.2006

@<TRIPOS>MOLECULE
ASD00431102
  53   55    0    0    0
SMALL
NO_CHARGES


@<TRIPOS>ATOM
   1 C1             0.0865     1.5725    -0.2404 C.2     
   2 N2             0.0812     0.2248    -0.2279 N.am    
   3 O3             1.1412     2.1760    -0.2426 O.2     
   4 O4            -1.0768     2.2501    -0.2559 O.3     
   5 C5             1.3471    -0.5126    -0.2171 C.3     
   6 C6             1.8465    -0.6473     1.2228 C.3     
   7 C7             1.1348    -1.8836    -0.8055 C.ar    
   8 C8             2.0887    -2.4300    -1.6393 C.ar    
   9 C9             1.8907    -3.7001    -2.1831 C.ar    
  10 C10            0.7273    -4.4093    -1.8789 C.ar    
  11 C11           -0.2183    -3.8514    -1.0439 C.ar    
  12 C12           -0.0133    -2.5939    -0.5039 C.ar    
  13 S13            4.4250    -3.5383    -3.5630 S.3     
  14 C14            4.8189    -4.9110    -4.5025 C.2     
  15 N15            3.8774    -5.7988    -4.4192 N.2     
  16 C16            2.8392    -5.5029    -3.6660 C.2     
  17 C17            2.9080    -4.2914    -3.0774 C.2     
  18 O18            5.9525    -5.0510    -5.2308 O.3     
  19 C19            6.1731    -6.2436    -5.8454 C.ar    
  20 C20            5.3343    -6.6626    -6.8679 C.ar    
  21 C21            5.5585    -7.8741    -7.4922 C.ar    
  22 C22            6.6221    -8.6717    -7.0968 C.ar    
  23 C23            7.4608    -8.2529    -6.0745 C.ar    
  24 C24            7.2402    -7.0388    -5.4539 C.ar    
  25 O25            6.8424    -9.8646    -7.7112 O.3     
  26 C26            5.8640   -10.2968    -8.6587 C.3     
  27 C27            6.2835    -9.8557   -10.0624 C.3     
  28 C28            5.7514   -11.8221    -8.6159 C.3     
  29 C29           -0.9952     3.6998    -0.2687 C.3     
  30 H30           -0.7607    -0.2569    -0.2261 H       
  31 H31            2.0866     0.0265    -0.8092 H       
  32 H32            2.0000     0.3443     1.6485 H       
  33 H33            1.1070    -1.1863     1.8150 H       
  34 H34            2.7883    -1.1959     1.2309 H       
  35 H35            2.9864    -1.8760    -1.8710 H       
  36 H36            0.5679    -5.3924    -2.2966 H       
  37 H37           -1.1188    -4.3990    -0.8078 H       
  38 H38           -0.7550    -2.1633     0.1526 H       
  39 H39            2.0031    -6.1732    -3.5312 H       
  40 H40            4.5059    -6.0417    -7.1756 H       
  41 H41            4.9053    -8.2004    -8.2880 H       
  42 H42            8.2887    -8.8742    -5.7665 H       
  43 H43            7.8959    -6.7107    -4.6609 H       
  44 H44            4.8989    -9.8542    -8.4120 H       
  45 H45            5.5372   -10.1854   -10.7851 H       
  46 H46            6.3638    -8.7691   -10.0929 H       
  47 H47            7.2486   -10.2983   -10.3091 H       
  48 H48            5.4525   -12.1364    -7.6159 H       
  49 H49            5.0050   -12.1518    -9.3386 H       
  50 H50            6.7164   -12.2647    -8.8625 H       
  51 H51           -0.4688     4.0419     0.6223 H       
  52 H52           -0.4547     4.0254    -1.1575 H       
  53 H53           -2.0008     4.1202    -0.2806 H       
@<TRIPOS>BOND
   1    1    2 am
   2    1    3 2
   3    1    4 1
   4    2    5 1
   5    2   30 1
   6    4   29 1
   7    5    6 1
   8    5    7 1
   9    5   31 1
  10    6   32 1
  11    6   33 1
  12    6   34 1
  13    7    8 ar
  14    7   12 ar
  15    8    9 ar
  16    8   35 1
  17    9   10 ar
  18    9   17 1
  19   10   11 ar
  20   10   36 1
  21   11   12 ar
  22   11   37 1
  23   12   38 1
  24   13   14 1
  25   13   17 1
  26   14   15 2
  27   14   18 1
  28   15   16 1
  29   16   17 2
  30   16   39 1
  31   18   19 1
  32   19   20 ar
  33   19   24 ar
  34   20   21 ar
  35   20   40 1
  36   21   22 ar
  37   21   41 1
  38   22   23 ar
  39   22   25 1
  40   23   24 ar
  41   23   42 1
  42   24   43 1
  43   25   26 1
  44   26   27 1
  45   26   28 1
  46   26   44 1
  47   27   45 1
  48   27   46 1
  49   27   47 1
  50   28   48 1
  51   28   49 1
  52   28   50 1
  53   29   51 1
  54   29   52 1
  55   29   53 1

#	End of record

