#	Name: ASD00845011
#	Creating user name:	WinNT
#	Creation time:	15. 06. 2019 18:51

#	Modifying user name:	WinNT
#	Modification time:	15. 06. 2019 18:51

#	Program:	/corina/corina34_cracker 3.40 0067  02.08.2006

@<TRIPOS>MOLECULE
ASD00845011
  91   96    0    0    0
SMALL
NO_CHARGES


@<TRIPOS>ATOM
   1 F1             5.6894    -2.1742    -1.9742 F       
   2 C2             0.7245     1.2466    -0.4047 C.ar    
   3 C3             0.9727    -0.0925    -0.6680 C.ar    
   4 C4             0.8528    -1.0305     0.3474 C.ar    
   5 C5             0.4869    -0.6290     1.6173 C.ar    
   6 C6             0.2396     0.7065     1.8771 C.ar    
   7 C7             0.3588     1.6432     0.8673 C.ar    
   8 C8             1.1212    -2.4863     0.0647 C.3     
   9 C9             0.7967    -3.3307     1.2785 C.2     
  10 C10            0.3108    -2.9541    -1.1458 C.3     
  11 C11           -1.1500    -2.6646    -0.9147 C.2     
  12 N12           -2.0696    -3.0855    -1.8056 N.am    
  13 O13           -1.4981    -2.0529     0.0730 O.2     
  14 C14           -3.4829    -2.7134    -1.6550 C.3     
  15 C15           -4.3332    -3.9876    -1.6763 C.3     
  16 C16           -4.0242    -4.7811    -2.9479 C.3     
  17 C17           -2.5481    -5.1852    -2.9530 C.3     
  18 C18           -1.6767    -3.9200    -2.9493 C.3     
  19 C19           -4.8967    -6.0372    -2.9895 C.3     
  20 C20           -6.3740    -5.6344    -2.9862 C.3     
  21 C21           -7.2407    -6.8915    -3.0894 C.3     
  22 N22           -6.9142    -7.6125    -4.3263 N.3     
  23 C23           -5.5126    -8.0507    -4.3313 C.3     
  24 C24           -4.5944    -6.8282    -4.2652 C.3     
  25 C25           -7.8220    -8.7496    -4.5281 C.3     
  26 O26           -0.2880    -3.4417     1.8098 O.2     
  27 N27            1.9360    -3.9346     1.6565 N.am    
  28 C28            2.5975    -2.7184    -0.1611 C.ar    
  29 C29            3.0116    -3.5966     0.8326 C.ar    
  30 C30            3.4868    -2.2420    -1.0982 C.ar    
  31 C31            4.8136    -2.6389    -1.0564 C.ar    
  32 C32            5.2392    -3.5150    -0.0694 C.ar    
  33 C33            4.3465    -3.9928     0.8707 C.ar    
  34 F34            6.5325    -3.9032    -0.0269 F       
  35 C35            1.7297    -6.5884     2.3561 C.ar    
  36 C36            2.7704    -7.3760     1.9004 C.ar    
  37 C37            0.4376    -7.0794     2.3505 C.ar    
  38 C38            0.1861    -8.3581     1.8893 C.ar    
  39 C39            1.2267    -9.1455     1.4332 C.ar    
  40 C40            2.5188    -8.6544     1.4388 C.ar    
  41 H41            1.0302   -10.1445     1.0729 H       
  42 H42            3.7800    -6.9923     1.9047 H       
  43 C43           -7.5328    -9.3989    -5.8829 C.3     
  44 C44           -7.6083    -9.7766    -3.4143 C.3     
  45 S45            2.0513    -4.9612     2.9507 S.o2    
  46 O46            3.4131    -4.9441     3.3564 O.2     
  47 O47            0.9770    -4.6324     3.8207 O.2     
  48 O48            1.3321    -0.4851    -1.9184 O.3     
  49 C49            1.3578     0.5217    -2.9322 C.3     
  50 C50            1.8659    -0.0857    -4.2414 C.3     
  51 F51            3.1200    -0.6684    -4.0293 F       
  52 F52            0.9664    -1.0623    -4.6823 F       
  53 H53            0.8215     1.9793    -1.1923 H       
  54 H54            0.3935    -1.3588     2.4079 H       
  55 H55           -0.0470     1.0184     2.8705 H       
  56 H56            0.1652     2.6856     1.0727 H       
  57 H57            0.6496    -2.4247    -2.0364 H       
  58 H58            0.4512    -4.0260    -1.2848 H       
  59 H59           -3.6253    -2.1950    -0.7068 H       
  60 H60           -3.7792    -2.0627    -2.4777 H       
  61 H61           -4.0995    -4.5955    -0.8022 H       
  62 H62           -5.3897    -3.7202    -1.6620 H       
  63 H63           -4.2347    -4.1638    -3.8212 H       
  64 H64           -2.3312    -5.7819    -2.0669 H       
  65 H65           -2.3342    -5.7703    -3.8474 H       
  66 H66           -1.8270    -3.3702    -3.8783 H       
  67 H67           -0.6275    -4.1992    -2.8530 H       
  68 H68           -4.6860    -6.6562    -2.1174 H       
  69 H69           -6.6055    -5.1077    -2.0604 H       
  70 H70           -6.5754    -4.9827    -3.8364 H       
  71 H71           -7.0489    -7.5363    -2.2317 H       
  72 H72           -8.2929    -6.6071    -3.1017 H       
  73 H73           -5.3289    -8.6900    -3.4679 H       
  74 H74           -5.3098    -8.6083    -5.2457 H       
  75 H75           -4.7678    -6.1953    -5.1355 H       
  76 H76           -3.5544    -7.1545    -4.2532 H       
  77 H77           -8.8539    -8.3991    -4.5060 H       
  78 H78            3.1503    -1.5601    -1.8651 H       
  79 H79            4.6845    -4.6747     1.6370 H       
  80 H80           -0.3754    -6.4642     2.7068 H       
  81 H81           -0.8234    -8.7420     1.8856 H       
  82 H82            3.3319    -9.2698     1.0828 H       
  83 H83           -6.5010    -9.7494    -5.9050 H       
  84 H84           -8.2064   -10.2427    -6.0326 H       
  85 H85           -7.6851    -8.6673    -6.6764 H       
  86 H86           -7.8144    -9.3141    -2.4491 H       
  87 H87           -8.2820   -10.6204    -3.5640 H       
  88 H88           -6.5765   -10.1271    -3.4364 H       
  89 H89            0.3517     0.9142    -3.0801 H       
  90 H90            2.0216     1.3299    -2.6249 H       
  91 H91            1.9515     0.6965    -4.9956 H       
@<TRIPOS>BOND
   1    1   31 1
   2    2    3 ar
   3    2    7 ar
   4    2   53 1
   5    3    4 ar
   6    3   48 1
   7    4    5 ar
   8    4    8 1
   9    5    6 ar
  10    5   54 1
  11    6    7 ar
  12    6   55 1
  13    7   56 1
  14    8    9 1
  15    8   10 1
  16    8   28 1
  17    9   26 2
  18    9   27 am
  19   10   11 1
  20   10   57 1
  21   10   58 1
  22   11   12 am
  23   11   13 2
  24   12   14 1
  25   12   18 1
  26   14   15 1
  27   14   59 1
  28   14   60 1
  29   15   16 1
  30   15   61 1
  31   15   62 1
  32   16   17 1
  33   16   19 1
  34   16   63 1
  35   17   18 1
  36   17   64 1
  37   17   65 1
  38   18   66 1
  39   18   67 1
  40   19   20 1
  41   19   24 1
  42   19   68 1
  43   20   21 1
  44   20   69 1
  45   20   70 1
  46   21   22 1
  47   21   71 1
  48   21   72 1
  49   22   23 1
  50   22   25 1
  51   23   24 1
  52   23   73 1
  53   23   74 1
  54   24   75 1
  55   24   76 1
  56   25   43 1
  57   25   44 1
  58   25   77 1
  59   27   45 am
  60   27   29 1
  61   28   29 ar
  62   28   30 ar
  63   29   33 ar
  64   30   31 ar
  65   30   78 1
  66   31   32 ar
  67   32   33 ar
  68   32   34 1
  69   33   79 1
  70   35   36 ar
  71   35   37 ar
  72   35   45 1
  73   36   42 1
  74   36   40 ar
  75   37   38 ar
  76   37   80 1
  77   38   39 ar
  78   38   81 1
  79   39   40 ar
  80   39   41 1
  81   40   82 1
  82   43   83 1
  83   43   84 1
  84   43   85 1
  85   44   86 1
  86   44   87 1
  87   44   88 1
  88   45   46 2
  89   45   47 2
  90   48   49 1
  91   49   50 1
  92   49   89 1
  93   49   90 1
  94   50   51 1
  95   50   52 1
  96   50   91 1

#	End of record

