#	Name: ASD06590027
#	Creating user name:	WinNT
#	Creation time:	15. 06. 2019 21:06

#	Modifying user name:	WinNT
#	Modification time:	15. 06. 2019 21:06

#	Program:	/corina/corina34_cracker 3.40 0067  02.08.2006

@<TRIPOS>MOLECULE
ASD06590027
 314  318    0    0    0
SMALL
NO_CHARGES


@<TRIPOS>ATOM
   1 C1             1.0100     7.2003   -14.2612 C.2     
   2 O2             1.1113     5.9951   -14.3522 O.2     
   3 N3             3.1823     7.2647   -15.3409 N.am    
   4 C4             2.1103     8.0902   -14.7792 C.3     
   5 C5             1.5524     9.0106   -15.8667 C.3     
   6 O6             0.9299     8.2233   -16.8839 O.3     
   7 C7            -2.4627     7.6391   -13.2071 C.2     
   8 O8            -2.4914     8.7902   -13.5880 O.2     
   9 N9            -0.0892     7.7438   -13.7018 N.am    
  10 C10           -1.1616     6.8788   -13.2037 C.3     
  11 C11           -0.8355     6.4323   -11.7771 C.3     
  12 O12           -0.8335     7.5689   -10.9110 O.3     
  13 C13           -5.7912     7.1845   -11.7658 C.2     
  14 O14           -5.4340     6.2366   -11.0989 O.2     
  15 N15           -3.5944     7.0400   -12.7867 N.am    
  16 C16           -4.8593     7.7791   -12.7900 C.3     
  17 C17           -5.4998     7.6877   -14.1764 C.3     
  18 C18           -4.6245     8.3909   -15.1816 C.ar    
  19 C19           -3.6356     7.6893   -15.8460 C.ar    
  20 C20           -2.8316     8.3318   -16.7676 C.ar    
  21 C21           -3.0174     9.6820   -17.0264 C.ar    
  22 O22           -2.2280    10.3162   -17.9328 O.3     
  23 C23           -4.0106    10.3837   -16.3587 C.ar    
  24 C24           -4.8154     9.7354   -15.4419 C.ar    
  25 C25           -9.3538     7.4239   -10.9822 C.2     
  26 O26           -9.5901     8.0555   -11.9902 O.2     
  27 N27           -7.0216     7.7061   -11.5911 N.am    
  28 C28           -7.9276     7.1280   -10.5954 C.3     
  29 C29           -7.6341     7.7383    -9.2235 C.3     
  30 C30           -6.2496     7.3393    -8.7820 C.ar    
  31 C31           -5.1647     8.1309    -9.1094 C.ar    
  32 C32           -3.8947     7.7648    -8.7044 C.ar    
  33 C33           -3.7097     6.6074    -7.9716 C.ar    
  34 C34           -4.7947     5.8162    -7.6435 C.ar    
  35 C35           -6.0652     6.1846    -8.0448 C.ar    
  36 C36          -12.6216     7.2555    -9.3526 C.2     
  37 O37          -12.1310     7.0243    -8.2678 O.2     
  38 N38          -10.3666     6.9867   -10.2079 N.am    
  39 C39          -11.7530     7.2745   -10.5839 C.3     
  40 C40          -12.2443     6.2138   -11.5711 C.3     
  41 C41          -11.4429     6.3163   -12.8704 C.3     
  42 C42          -11.9343     5.2556   -13.8576 C.3     
  43 N43          -11.1670     5.3537   -15.1017 N.pl3   
  44 C44          -11.4329     4.4961   -16.1428 C.2     
  45 N45          -10.7503     4.5834   -17.2497 N.2     
  46 N46          -12.4190     3.5464   -16.0164 N.pl3   
  47 C47          -16.2080     7.1578    -8.6517 C.2     
  48 O48          -16.4870     6.9648    -9.8161 O.2     
  49 N49          -13.9438     7.4953    -9.4569 N.am    
  50 C50          -14.7882     7.4768    -8.2599 C.3     
  51 C51          -14.7420     8.8476    -7.5819 C.3     
  52 C52          -13.3245     9.1174    -7.0731 C.3     
  53 C53          -13.2783    10.4882    -6.3952 C.3     
  54 N54          -11.9210    10.7465    -5.9080 N.pl3   
  55 C55          -11.6360    11.9250    -5.2598 C.2     
  56 N56          -10.4285    12.1548    -4.8263 N.2     
  57 N57          -12.6247    12.8610    -5.0688 N.pl3   
  58 C58          -19.4695     7.4993    -7.0593 C.2     
  59 O59          -19.0815     7.6265    -5.9173 O.2     
  60 N60          -17.1677     7.0869    -7.7080 N.am    
  61 C61          -18.5656     6.8877    -8.0985 C.3     
  62 C62          -18.8559     5.3896    -8.2089 C.3     
  63 C63          -20.2748     5.1829    -8.7426 C.3     
  64 C64          -20.3589     5.6989   -10.1805 C.3     
  65 C65          -20.6180     3.6922    -8.7148 C.3     
  66 C66          -23.0491     8.2042    -6.8297 C.2     
  67 O67          -23.2733     7.7068    -7.9128 O.2     
  68 N68          -20.7091     7.9049    -7.3989 N.am    
  69 C69          -21.6273     8.3957    -6.3682 C.3     
  70 C70          -21.3676     9.8829    -6.1201 C.3     
  71 C71          -19.9873    10.0622    -5.5425 C.2     
  72 C72          -19.0178    10.8535    -6.0401 C.2     
  73 N73          -17.9348    10.7204    -5.2136 N.pl3   
  74 C74          -18.2804     9.8518    -4.2390 C.2     
  75 N75          -19.5109     9.4661    -4.4394 N.2     
  76 C76          -26.3457     9.3961    -5.7929 C.2     
  77 O77          -25.8734    10.1842    -5.0012 O.2     
  78 N78          -24.0715     8.5857    -6.0387 N.am    
  79 C79          -25.4536     8.3996    -6.4873 C.3     
  80 C80          -25.9133     6.9803    -6.1478 C.3     
  81 O81          -25.9515     6.8187    -4.7285 O.3     
  82 C82          -29.9435     9.8456    -5.3278 C.2     
  83 O83          -30.2242     8.8222    -5.9149 O.2     
  84 N84          -27.6683     9.4116    -6.0516 N.am    
  85 C85          -28.5354    10.3804    -5.3765 C.3     
  86 C86          -28.5184    11.7028    -6.1457 C.3     
  87 C87          -27.0829    12.2252    -6.2303 C.3     
  88 O88          -29.0276    11.4935    -7.4643 O.3     
  89 C89          -33.2052    11.1823    -4.3594 C.2     
  90 O90          -32.7530    12.2887    -4.1535 O.2     
  91 N91          -30.8910    10.5047    -4.6317 N.am    
  92 C92          -32.2773    10.0316    -4.6525 C.3     
  93 C93          -32.4613     8.9450    -3.5911 C.3     
  94 C94          -31.6121     7.7260    -3.9567 C.3     
  95 C95          -31.7961     6.6394    -2.8954 C.3     
  96 N96          -30.9830     5.4721    -3.2455 N.pl3   
  97 C97          -30.9870     4.3630    -2.4331 C.2     
  98 N98          -30.2635     3.3245    -2.7446 N.2     
  99 N99          -31.7540     4.3493    -1.2923 N.pl3   
 100 C100         -35.7188    12.0166    -2.4759 C.2     
 101 O101         -35.2215    11.1415    -1.7992 O.2     
 102 N102         -34.5376    10.9820    -4.3261 N.am    
 103 C103         -35.4343    12.0793    -3.9544 C.3     
 104 C104         -36.7457    11.9519    -4.7320 C.3     
 105 C105         -36.4804    12.1561    -6.2014 C.2     
 106 O106         -35.3437    12.3036    -6.5976 O.2     
 107 N107         -37.5064    12.1749    -7.0752 N.am    
 108 C108         -38.1220    13.5412    -0.1817 C.2     
 109 O109         -38.7679    14.0217    -1.0889 O.2     
 110 N110         -36.5258    12.9331    -1.9055 N.am    
 111 C111         -36.8024    12.8721    -0.4681 C.3     
 112 C112         -35.6893    13.5915     0.2964 C.3     
 113 C113         -34.3908    12.8502     0.1085 C.ar    
 114 C114         -33.5582    13.1731    -0.9471 C.ar    
 115 C115         -32.3675    12.4947    -1.1218 C.ar    
 116 C116         -32.0072    11.4891    -0.2366 C.ar    
 117 O117         -30.8362    10.8206    -0.4060 O.3     
 118 C118         -32.8441    11.1673     0.8220 C.ar    
 119 C119         -34.0313    11.8522     0.9953 C.ar    
 120 C120         -39.9486    14.7428     2.7365 C.2     
 121 O121         -39.1795    14.3398     3.5832 O.2     
 122 N122         -38.5845    13.6057     1.0825 N.am    
 123 C123         -39.9155    14.1570     1.3484 C.3     
 124 C124         -40.9596    13.0439     1.2396 C.3     
 125 C125         -42.3602    13.6424     1.3851 C.3     
 126 C126         -42.6486    14.5605     0.1956 C.3     
 127 C127         -40.7266    12.0159     2.3486 C.3     
 128 C128         -41.8696    15.3195     5.1952 C.2     
 129 O129         -42.3909    14.3700     4.6598 O.2     
 130 N130         -40.8328    15.7146     3.0369 N.am    
 131 C131         -40.9388    16.2090     4.4119 C.3     
 132 C132         -41.4880    17.6369     4.3996 C.3     
 133 C133         -40.4984    18.5500     3.7229 C.2     
 134 C134         -40.7539    19.3566     2.6752 C.2     
 135 N135         -39.5853    20.0056     2.3807 N.pl3   
 136 C136         -38.6556    19.5726     3.2593 C.2     
 137 N137         -39.2101    18.7060     4.0621 N.2     
 138 O138         -42.1195    15.5820     6.4876 O.3     
 139 C139           4.4408     7.7435   -15.4002 C.2     
 140 O140           4.6857     8.8577   -14.9886 O.2     
 141 C141          22.6144     6.2747   -19.7306 C.3     
 142 C142          21.4947     7.1368   -19.1440 C.3     
 143 C143          20.1757     6.3632   -19.1945 C.3     
 144 C144          19.0561     7.2253   -18.6079 C.3     
 145 C145          17.7370     6.4517   -18.6584 C.3     
 146 C146          16.6174     7.3138   -18.0718 C.3     
 147 C147          15.2983     6.5402   -18.1223 C.3     
 148 C148          14.1787     7.4024   -17.5357 C.3     
 149 C149          12.8596     6.6288   -17.5862 C.3     
 150 C150          11.7400     7.4909   -16.9996 C.3     
 151 C151          10.4210     6.7173   -17.0501 C.3     
 152 C152           9.3013     7.5794   -16.4635 C.3     
 153 C153           7.9823     6.8058   -16.5140 C.3     
 154 C154           6.8627     7.6679   -15.9275 C.3     
 155 C155           5.5436     6.8943   -15.9779 C.3     
 156 H156           2.9864     6.3736   -15.6701 H       
 157 H157           2.5059     8.6924   -13.9613 H       
 158 H158           0.8172     9.6860   -15.4290 H       
 159 H159           2.3649     9.5915   -16.3031 H       
 160 H160           0.5529     8.7424   -17.6074 H       
 161 H161          -0.1703     8.7076   -13.6290 H       
 162 H162          -1.2506     6.0034   -13.8470 H       
 163 H163          -1.5871     5.7191   -11.4389 H       
 164 H164           0.1470     5.9605   -11.7597 H       
 165 H165          -0.6337     7.3599    -9.9882 H       
 166 H166          -3.5714     6.1194   -12.4820 H       
 167 H167          -4.6699     8.8244   -12.5454 H       
 168 H168          -5.6078     6.6404   -14.4584 H       
 169 H169          -6.4814     8.1612   -14.1551 H       
 170 H170          -3.4914     6.6382   -15.6442 H       
 171 H171          -2.0589     7.7834   -17.2858 H       
 172 H172          -2.5733    10.2980   -18.8359 H       
 173 H173          -4.1570    11.4349   -16.5582 H       
 174 H174          -5.5916    10.2801   -14.9250 H       
 175 H175          -7.3073     8.4642   -12.1245 H       
 176 H176          -7.7793     6.0490   -10.5523 H       
 177 H177          -7.6958     8.8247    -9.2884 H       
 178 H178          -8.3647     7.3755    -8.5006 H       
 179 H179          -5.3092     9.0352    -9.6818 H       
 180 H180          -3.0470     8.3830    -8.9608 H       
 181 H181          -2.7174     6.3210    -7.6559 H       
 182 H182          -4.6501     4.9117    -7.0713 H       
 183 H183          -6.9134     5.5684    -7.7852 H       
 184 H184         -10.1775     6.4816    -9.4017 H       
 185 H185         -11.8062     8.2579   -11.0509 H       
 186 H186         -12.1082     5.2231   -11.1374 H       
 187 H187         -13.3012     6.3759   -11.7823 H       
 188 H188         -11.5790     7.3070   -13.3040 H       
 189 H189         -10.3860     6.1541   -12.6591 H       
 190 H190         -11.7982     4.2649   -13.4239 H       
 191 H191         -12.9912     5.4177   -14.0688 H       
 192 H192         -10.4713     6.0238   -15.1909 H       
 193 H193         -10.9379     3.9783   -17.9843 H       
 194 H194         -12.9270     3.4815   -15.1926 H       
 195 H195         -12.6066     2.9413   -16.7509 H       
 196 H196         -14.3362     7.6801   -10.3245 H       
 197 H197         -14.4226     6.7172    -7.5689 H       
 198 H198         -15.0230     9.6179    -8.3002 H       
 199 H199         -15.4380     8.8618    -6.7431 H       
 200 H200         -13.0436     8.3472    -6.3549 H       
 201 H201         -12.6286     9.1032    -7.9119 H       
 202 H202         -13.5593    11.2585    -7.1134 H       
 203 H203         -13.9743    10.5024    -5.5564 H       
 204 H204         -11.2235    10.0861    -6.0427 H       
 205 H205         -10.2274    12.9863    -4.3690 H       
 206 H206         -13.5234    12.6900    -5.3913 H       
 207 H207         -12.4236    13.6925    -4.6114 H       
 208 H208         -16.9329     7.1677    -6.7704 H       
 209 H209         -18.7452     7.3645    -9.0621 H       
 210 H210         -18.1405     4.9302    -8.8911 H       
 211 H211         -18.7671     4.9288    -7.2250 H       
 212 H212         -20.9811     5.7301    -8.1183 H       
 213 H213         -19.6942     5.1137   -10.8160 H       
 214 H214         -21.3831     5.6040   -10.5412 H       
 215 H215         -20.0594     6.7465   -10.2087 H       
 216 H216         -20.5581     3.3246    -7.6904 H       
 217 H217         -21.6289     3.5449    -9.0951 H       
 218 H218         -19.9117     3.1450    -9.3391 H       
 219 H219         -20.9933     7.8718    -8.3257 H       
 220 H220         -21.4672     7.8398    -5.4444 H       
 221 H221         -21.4407    10.4266    -7.0620 H       
 222 H222         -22.1077    10.2690    -5.4192 H       
 223 H223         -19.0823    11.4736    -6.9219 H       
 224 H224         -17.0789    11.1666    -5.3100 H       
 225 H225         -17.6451     9.5323    -3.4262 H       
 226 H226         -23.8921     8.9836    -5.1724 H       
 227 H227         -25.5093     8.5515    -7.5652 H       
 228 H228         -26.9085     6.8125    -6.5595 H       
 229 H229         -25.2164     6.2603    -6.5768 H       
 230 H230         -26.2351     5.9404    -4.4401 H       
 231 H231         -28.0460     8.7813    -6.6848 H       
 232 H232         -28.1743    10.5457    -4.3614 H       
 233 H233         -29.1406    12.4325    -5.6275 H       
 234 H234         -26.4626    11.4997    -6.7566 H       
 235 H235         -27.0720    13.1720    -6.7702 H       
 236 H236         -26.6912    12.3760    -5.2243 H       
 237 H237         -29.9357    11.1617    -7.4873 H       
 238 H238         -30.6549    11.2923    -4.1171 H       
 239 H239         -32.5066     9.6214    -5.6359 H       
 240 H240         -32.1474     9.3285    -2.6203 H       
 241 H241         -33.5113     8.6559    -3.5454 H       
 242 H242         -31.9260     7.3425    -4.9276 H       
 243 H243         -30.5622     8.0151    -4.0025 H       
 244 H244         -31.4822     7.0229    -1.9246 H       
 245 H245         -32.8461     6.3503    -2.8496 H       
 246 H246         -30.4418     5.4818    -4.0504 H       
 247 H247         -30.2663     2.5419    -2.1714 H       
 248 H248         -32.2924     5.1221    -1.0605 H       
 249 H249         -31.7568     3.5667    -0.7191 H       
 250 H250         -34.9028    10.1113    -4.5482 H       
 251 H251         -34.9613    13.0318    -4.1934 H       
 252 H252         -37.1672    10.9593    -4.5735 H       
 253 H253         -37.4505    12.7060    -4.3818 H       
 254 H254         -38.4156    12.0570    -6.7583 H       
 255 H255         -37.3356    12.3064    -8.0209 H       
 256 H256         -36.9235    13.6329    -2.4467 H       
 257 H257         -36.8468    11.8304    -0.1505 H       
 258 H258         -35.5858    14.6078    -0.0836 H       
 259 H259         -35.9392    13.6237     1.3569 H       
 260 H260         -33.8392    13.9561    -1.6359 H       
 261 H261         -31.7179    12.7468    -1.9469 H       
 262 H262         -30.0847    11.2213     0.0521 H       
 263 H263         -32.5660    10.3846     1.5122 H       
 264 H264         -34.6811    11.6050     1.8218 H       
 265 H265         -38.0361    13.2872     1.8164 H       
 266 H266         -40.1382    14.9365     0.6197 H       
 267 H267         -40.8717    12.5570     0.2684 H       
 268 H268         -43.0973    12.8399     1.4118 H       
 269 H269         -42.4154    14.2173     2.3096 H       
 270 H270         -41.9745    15.4166     0.2256 H       
 271 H271         -42.4964    14.0105    -0.7331 H       
 272 H272         -43.6803    14.9084     0.2470 H       
 273 H273         -40.9033    12.4812     3.3183 H       
 274 H274         -41.4114    11.1782     2.2172 H       
 275 H275         -39.6988    11.6560     2.3002 H       
 276 H276         -41.3990    16.0867     2.3428 H       
 277 H277         -39.9531    16.2028     4.8772 H       
 278 H278         -42.4326    17.6582     3.8561 H       
 279 H279         -41.6506    17.9725     5.4238 H       
 280 H280         -41.6992    19.4695     2.1651 H       
 281 H281         -39.4501    20.6551     1.6731 H       
 282 H282         -37.6250    19.8935     3.2944 H       
 283 H283         -42.7231    14.9833     6.9484 H       
 284 H284          22.7088     5.3572   -19.1496 H       
 285 H285          22.3779     6.0268   -20.7653 H       
 286 H286          23.5541     6.8258   -19.6946 H       
 287 H287          21.7312     7.3846   -18.1092 H       
 288 H288          21.4003     8.0542   -19.7249 H       
 289 H289          19.9392     6.1153   -20.2292 H       
 290 H290          20.2701     5.4457   -18.6136 H       
 291 H291          19.2925     7.4732   -17.5731 H       
 292 H292          18.9617     8.1428   -19.1888 H       
 293 H293          17.5005     6.2038   -19.6932 H       
 294 H294          17.8314     5.5343   -18.0775 H       
 295 H295          16.8538     7.5617   -17.0370 H       
 296 H296          16.5230     8.2313   -18.6527 H       
 297 H297          15.0619     6.2924   -19.1571 H       
 298 H298          15.3927     5.6228   -17.5414 H       
 299 H299          14.4152     7.6502   -16.5010 H       
 300 H300          14.0843     8.3198   -18.1166 H       
 301 H301          12.6232     6.3809   -18.6210 H       
 302 H302          12.9540     5.7113   -17.0053 H       
 303 H303          11.9765     7.7387   -15.9649 H       
 304 H304          11.6456     8.4083   -17.5806 H       
 305 H305          10.1845     6.4694   -18.0849 H       
 306 H306          10.5154     5.7998   -16.4692 H       
 307 H307           9.5378     7.8273   -15.4288 H       
 308 H308           9.2069     8.4969   -17.0445 H       
 309 H309           7.7458     6.5579   -17.5488 H       
 310 H310           8.0767     5.8883   -15.9331 H       
 311 H311           7.0991     7.9158   -14.8927 H       
 312 H312           6.7683     8.5854   -16.5084 H       
 313 H313           5.6380     5.9769   -15.3970 H       
 314 H314           5.3071     6.6465   -17.0127 H       
@<TRIPOS>BOND
   1    1    2 2
   2    1    4 1
   3    1    9 am
   4    3  139 am
   5    3    4 1
   6    3  156 1
   7    4    5 1
   8    4  157 1
   9    5    6 1
  10    5  158 1
  11    5  159 1
  12    6  160 1
  13    7    8 2
  14    7   10 1
  15    7   15 am
  16    9   10 1
  17    9  161 1
  18   10   11 1
  19   10  162 1
  20   11   12 1
  21   11  163 1
  22   11  164 1
  23   12  165 1
  24   13   14 2
  25   13   16 1
  26   13   27 am
  27   15   16 1
  28   15  166 1
  29   16   17 1
  30   16  167 1
  31   17   18 1
  32   17  168 1
  33   17  169 1
  34   18   19 ar
  35   18   24 ar
  36   19   20 ar
  37   19  170 1
  38   20   21 ar
  39   20  171 1
  40   21   22 1
  41   21   23 ar
  42   22  172 1
  43   23   24 ar
  44   23  173 1
  45   24  174 1
  46   25   26 2
  47   25   28 1
  48   25   38 am
  49   27   28 1
  50   27  175 1
  51   28   29 1
  52   28  176 1
  53   29   30 1
  54   29  177 1
  55   29  178 1
  56   30   31 ar
  57   30   35 ar
  58   31   32 ar
  59   31  179 1
  60   32   33 ar
  61   32  180 1
  62   33   34 ar
  63   33  181 1
  64   34   35 ar
  65   34  182 1
  66   35  183 1
  67   36   37 2
  68   36   39 1
  69   36   49 am
  70   38   39 1
  71   38  184 1
  72   39   40 1
  73   39  185 1
  74   40   41 1
  75   40  186 1
  76   40  187 1
  77   41   42 1
  78   41  188 1
  79   41  189 1
  80   42   43 1
  81   42  190 1
  82   42  191 1
  83   43   44 1
  84   43  192 1
  85   44   45 2
  86   44   46 1
  87   45  193 1
  88   46  194 1
  89   46  195 1
  90   47   48 2
  91   47   50 1
  92   47   60 am
  93   49   50 1
  94   49  196 1
  95   50   51 1
  96   50  197 1
  97   51   52 1
  98   51  198 1
  99   51  199 1
 100   52   53 1
 101   52  200 1
 102   52  201 1
 103   53   54 1
 104   53  202 1
 105   53  203 1
 106   54   55 1
 107   54  204 1
 108   55   56 2
 109   55   57 1
 110   56  205 1
 111   57  206 1
 112   57  207 1
 113   58   59 2
 114   58   61 1
 115   58   68 am
 116   60   61 1
 117   60  208 1
 118   61   62 1
 119   61  209 1
 120   62   63 1
 121   62  210 1
 122   62  211 1
 123   63   64 1
 124   63   65 1
 125   63  212 1
 126   64  213 1
 127   64  214 1
 128   64  215 1
 129   65  216 1
 130   65  217 1
 131   65  218 1
 132   66   67 2
 133   66   69 1
 134   66   78 am
 135   68   69 1
 136   68  219 1
 137   69   70 1
 138   69  220 1
 139   70   71 1
 140   70  221 1
 141   70  222 1
 142   71   72 2
 143   71   75 1
 144   72   73 1
 145   72  223 1
 146   73   74 1
 147   73  224 1
 148   74   75 2
 149   74  225 1
 150   76   77 2
 151   76   79 1
 152   76   84 am
 153   78   79 1
 154   78  226 1
 155   79   80 1
 156   79  227 1
 157   80   81 1
 158   80  228 1
 159   80  229 1
 160   81  230 1
 161   82   83 2
 162   82   85 1
 163   82   91 am
 164   84   85 1
 165   84  231 1
 166   85   86 1
 167   85  232 1
 168   86   87 1
 169   86   88 1
 170   86  233 1
 171   87  234 1
 172   87  235 1
 173   87  236 1
 174   88  237 1
 175   89   90 2
 176   89   92 1
 177   89  102 am
 178   91   92 1
 179   91  238 1
 180   92   93 1
 181   92  239 1
 182   93   94 1
 183   93  240 1
 184   93  241 1
 185   94   95 1
 186   94  242 1
 187   94  243 1
 188   95   96 1
 189   95  244 1
 190   95  245 1
 191   96   97 1
 192   96  246 1
 193   97   98 2
 194   97   99 1
 195   98  247 1
 196   99  248 1
 197   99  249 1
 198  100  101 2
 199  100  103 1
 200  100  110 am
 201  102  103 1
 202  102  250 1
 203  103  104 1
 204  103  251 1
 205  104  105 1
 206  104  252 1
 207  104  253 1
 208  105  106 2
 209  105  107 am
 210  107  254 1
 211  107  255 1
 212  108  109 2
 213  108  111 1
 214  108  122 am
 215  110  111 1
 216  110  256 1
 217  111  112 1
 218  111  257 1
 219  112  113 1
 220  112  258 1
 221  112  259 1
 222  113  114 ar
 223  113  119 ar
 224  114  115 ar
 225  114  260 1
 226  115  116 ar
 227  115  261 1
 228  116  117 1
 229  116  118 ar
 230  117  262 1
 231  118  119 ar
 232  118  263 1
 233  119  264 1
 234  120  121 2
 235  120  123 1
 236  120  130 am
 237  122  123 1
 238  122  265 1
 239  123  124 1
 240  123  266 1
 241  124  125 1
 242  124  127 1
 243  124  267 1
 244  125  126 1
 245  125  268 1
 246  125  269 1
 247  126  270 1
 248  126  271 1
 249  126  272 1
 250  127  273 1
 251  127  274 1
 252  127  275 1
 253  128  129 2
 254  128  131 1
 255  128  138 1
 256  130  131 1
 257  130  276 1
 258  131  132 1
 259  131  277 1
 260  132  133 1
 261  132  278 1
 262  132  279 1
 263  133  134 2
 264  133  137 1
 265  134  135 1
 266  134  280 1
 267  135  136 1
 268  135  281 1
 269  136  137 2
 270  136  282 1
 271  138  283 1
 272  139  140 2
 273  139  155 1
 274  141  142 1
 275  141  284 1
 276  141  285 1
 277  141  286 1
 278  142  143 1
 279  142  287 1
 280  142  288 1
 281  143  144 1
 282  143  289 1
 283  143  290 1
 284  144  145 1
 285  144  291 1
 286  144  292 1
 287  145  146 1
 288  145  293 1
 289  145  294 1
 290  146  147 1
 291  146  295 1
 292  146  296 1
 293  147  148 1
 294  147  297 1
 295  147  298 1
 296  148  149 1
 297  148  299 1
 298  148  300 1
 299  149  150 1
 300  149  301 1
 301  149  302 1
 302  150  151 1
 303  150  303 1
 304  150  304 1
 305  151  152 1
 306  151  305 1
 307  151  306 1
 308  152  153 1
 309  152  307 1
 310  152  308 1
 311  153  154 1
 312  153  309 1
 313  153  310 1
 314  154  155 1
 315  154  311 1
 316  154  312 1
 317  155  313 1
 318  155  314 1

#	End of record

