#	Name: ASD01918213
#	Creating user name:	WinNT
#	Creation time:	15. 06. 2019 20:11

#	Modifying user name:	WinNT
#	Modification time:	15. 06. 2019 20:11

#	Program:	/corina/corina34_cracker 3.40 0067  02.08.2006

@<TRIPOS>MOLECULE
ASD01918213
  40   43    0    0    0
SMALL
NO_CHARGES


@<TRIPOS>ATOM
   1 C1             0.0526     1.3230    -0.0358 C.ar    
   2 C2             0.1944    -0.0671    -0.2759 C.ar    
   3 C3             1.4740    -0.6582    -0.1388 C.ar    
   4 N4             2.5232     0.0933     0.2123 N.ar    
   5 C5             2.4065     1.3802     0.4379 C.ar    
   6 C6             1.1876     2.0377     0.3246 C.ar    
   7 C7            -1.2614     1.9921    -0.1709 C.ar    
   8 C8            -2.2535     1.7862     0.7881 C.ar    
   9 C9            -3.4755     2.4120     0.6580 C.ar    
  10 C10           -3.7190     3.2440    -0.4234 C.ar    
  11 C11           -2.7367     3.4517    -1.3787 C.ar    
  12 C12           -1.5094     2.8350    -1.2546 C.ar    
  13 C13           -0.9017    -0.8588    -0.6429 C.ar    
  14 C14           -0.7266    -2.1916    -0.8650 C.ar    
  15 C15            0.5317    -2.7785    -0.7314 C.ar    
  16 C16            1.6186    -2.0355    -0.3759 C.ar    
  17 S17            1.0823     3.7685     0.6377 S.o2    
  18 C18            0.0914     3.9784     2.0794 C.ar    
  19 O19            2.3927     4.1937     0.9860 O.2     
  20 O20            0.3450     4.3272    -0.4409 O.2     
  21 C21           -1.2525     4.2769     1.9561 C.ar    
  22 C22            0.6572     3.8388     3.3326 C.ar    
  23 C23           -0.1207     4.0031     4.4663 C.ar    
  24 C24           -1.4655     4.3073     4.3441 C.ar    
  25 C25           -2.0323     4.4417     3.0884 C.ar    
  26 F26            0.6759    -4.1025    -0.9579 F       
  27 F27           -3.3458     4.7339     2.9677 F       
  28 F28            0.4326     3.8661     5.6911 F       
  29 F29           -4.9181     3.8541    -0.5468 F       
  30 H30            3.2830     1.9451     0.7191 H       
  31 H31           -2.0649     1.1375     1.6307 H       
  32 H32           -4.2442     2.2533     1.3999 H       
  33 H33           -2.9313     4.1007    -2.2198 H       
  34 H34           -0.7431     3.0007    -1.9974 H       
  35 H35           -1.8805    -0.4150    -0.7489 H       
  36 H36           -1.5723    -2.8010    -1.1475 H       
  37 H37            2.5866    -2.5040    -0.2764 H       
  38 H38           -1.6944     4.3821     0.9763 H       
  39 H39            1.7064     3.6011     3.4276 H       
  40 H40           -2.0731     4.4352     5.2278 H       
@<TRIPOS>BOND
   1    1    2 ar
   2    1    6 ar
   3    1    7 1
   4    2    3 ar
   5    2   13 ar
   6    3    4 ar
   7    3   16 ar
   8    4    5 ar
   9    5    6 ar
  10    5   30 1
  11    6   17 1
  12    7    8 ar
  13    7   12 ar
  14    8    9 ar
  15    8   31 1
  16    9   10 ar
  17    9   32 1
  18   10   11 ar
  19   10   29 1
  20   11   12 ar
  21   11   33 1
  22   12   34 1
  23   13   14 ar
  24   13   35 1
  25   14   15 ar
  26   14   36 1
  27   15   16 ar
  28   15   26 1
  29   16   37 1
  30   17   18 1
  31   17   19 2
  32   17   20 2
  33   18   22 ar
  34   18   21 ar
  35   21   25 ar
  36   21   38 1
  37   22   23 ar
  38   22   39 1
  39   23   24 ar
  40   23   28 1
  41   24   25 ar
  42   24   40 1
  43   25   27 1

#	End of record

