#	Name: ASD09740194
#	Creating user name:	WinNT
#	Creation time:	15. 06. 2019 21:22

#	Modifying user name:	WinNT
#	Modification time:	15. 06. 2019 21:22

#	Program:	/corina/corina34_cracker 3.40 0067  02.08.2006

@<TRIPOS>MOLECULE
ASD09740194
  44   46    0    0    0
SMALL
NO_CHARGES


@<TRIPOS>ATOM
   1 O1            -0.0144     1.2087     0.0087 O.3     
   2 N2             0.0021    -0.0041     0.0020 N.2     
   3 C3             1.2352     1.6834    -0.0007 C.2     
   4 N4             2.0399     0.6501    -0.0139 N.2     
   5 C5             1.2356    -0.4367    -0.0121 C.2     
   6 C6             1.6717    -1.8560    -0.0234 C.ar    
   7 C7             1.0809     3.8161    -1.2187 C.ar    
   8 C8             0.7366    -2.8940    -0.0201 C.ar    
   9 C9             3.0281    -2.1896    -0.0436 C.ar    
  10 C10            3.3902    -3.5217    -0.0541 C.ar    
  11 N11            2.4754    -4.4718    -0.0457 N.ar    
  12 C12            1.1850    -4.1995    -0.0315 C.ar    
  13 C13            1.9331     4.4050    -2.1341 C.ar    
  14 C14            1.4192     5.0252    -3.2574 C.ar    
  15 C15            0.0529     5.0563    -3.4657 C.ar    
  16 C16           -0.7993     4.4666    -2.5509 C.ar    
  17 C17           -0.2854     3.8476    -1.4268 C.ar    
  18 C18           -0.5074     5.7333    -4.6899 C.3     
  19 C19            1.6416     3.1345     0.0028 C.3     
  20 C20            1.0969     3.8137     1.2609 C.3     
  21 C21           -0.6147     4.7185    -5.8299 C.3     
  22 C22           -1.2981     5.3727    -7.0324 C.3     
  23 C23            0.7861     4.2520    -6.2309 C.3     
  24 H24           -0.3215    -2.6782    -0.0085 H       
  25 H25            3.7825    -1.4168    -0.0512 H       
  26 H26            4.4363    -3.7894    -0.0697 H       
  27 H27            0.4698    -5.0086    -0.0247 H       
  28 H28            3.0005     4.3807    -1.9714 H       
  29 H29            2.0850     5.4859    -3.9722 H       
  30 H30           -1.8667     4.4915    -2.7132 H       
  31 H31           -0.9512     3.3873    -0.7118 H       
  32 H32           -1.4965     6.1319    -4.4640 H       
  33 H33            0.1527     6.5474    -4.9891 H       
  34 H34            2.7291     3.2073    -0.0075 H       
  35 H35            0.0094     3.7409     1.2713 H       
  36 H36            1.5024     3.3207     2.1445 H       
  37 H37            1.3908     4.8633     1.2635 H       
  38 H38           -1.2023     3.8619    -5.4997 H       
  39 H39           -0.7106     6.2293    -7.3626 H       
  40 H40           -1.3746     4.6497    -7.8445 H       
  41 H41           -2.2961     5.7050    -6.7467 H       
  42 H42            1.2730     3.7860    -5.3742 H       
  43 H43            0.7097     3.5290    -7.0430 H       
  44 H44            1.3737     5.1086    -6.5611 H       
@<TRIPOS>BOND
   1    1    2 1
   2    1    3 1
   3    2    5 2
   4    3    4 2
   5    3   19 1
   6    4    5 1
   7    5    6 1
   8    6    8 ar
   9    6    9 ar
  10    7   13 ar
  11    7   17 ar
  12    7   19 1
  13    8   12 ar
  14    8   24 1
  15    9   10 ar
  16    9   25 1
  17   10   11 ar
  18   10   26 1
  19   11   12 ar
  20   12   27 1
  21   13   14 ar
  22   13   28 1
  23   14   15 ar
  24   14   29 1
  25   15   16 ar
  26   15   18 1
  27   16   17 ar
  28   16   30 1
  29   17   31 1
  30   18   21 1
  31   18   32 1
  32   18   33 1
  33   19   20 1
  34   19   34 1
  35   20   35 1
  36   20   36 1
  37   20   37 1
  38   21   22 1
  39   21   23 1
  40   21   38 1
  41   22   39 1
  42   22   40 1
  43   22   41 1
  44   23   42 1
  45   23   43 1
  46   23   44 1

#	End of record

