#	Name: ASD08150558
#	Creating user name:	WinNT
#	Creation time:	15. 06. 2019 21:16

#	Modifying user name:	WinNT
#	Modification time:	15. 06. 2019 21:16

#	Program:	/corina/corina34_cracker 3.40 0067  02.08.2006

@<TRIPOS>MOLECULE
ASD08150558
  49   54    0    0    0
SMALL
NO_CHARGES


@<TRIPOS>ATOM
   1 N1             0.4472     2.0740     1.7328 N.am    
   2 C2             0.7042     1.1071     2.6350 C.2     
   3 C3             1.9180     0.3911     2.6026 C.2     
   4 C4             2.8497     0.6687     1.6554 C.2     
   5 C5             2.5825     1.6850     0.7042 C.ar    
   6 C6             3.5146     2.0120    -0.2992 C.ar    
   7 N7             3.2656     2.9499    -1.1753 N.ar    
   8 C8             2.1205     3.6492    -1.1720 C.ar    
   9 C9             1.1252     3.3872    -0.1986 C.ar    
  10 C10            1.3642     2.3789     0.7645 C.ar    
  11 C11           -0.2569     5.1016    -1.1641 C.ar    
  12 C12            0.7326     5.3556    -2.1239 C.ar    
  13 C13            1.8947     4.6491    -2.1322 C.ar    
  14 O14           -0.1241     0.8481     3.4914 O.2     
  15 C15           -0.7686     2.7672     1.7830 C.ar    
  16 C16           -1.8884     2.2542     1.1420 C.ar    
  17 C17           -3.0865     2.9395     1.1926 C.ar    
  18 C18           -3.1714     4.1374     1.8820 C.ar    
  19 C19           -2.0555     4.6509     2.5221 C.ar    
  20 C20           -0.8573     3.9661     2.4787 C.ar    
  21 C21           -0.0644     4.1221    -0.2037 C.ar    
  22 C22           -1.5158     5.8866    -1.1760 C.ar    
  23 C23           -2.7312     5.2800    -0.8486 C.ar    
  24 F24           -4.3441     4.8065     1.9300 F       
  25 N25           -3.8578     5.9570    -0.8525 N.ar    
  26 C26           -3.8993     7.2458    -1.1661 C.ar    
  27 C27           -2.7144     7.9273    -1.5076 C.ar    
  28 C28           -1.5006     7.2402    -1.5084 C.ar    
  29 N29           -4.9232     8.1593    -1.2436 N.pl3   
  30 C30           -4.4341     9.3820    -1.6180 C.2     
  31 C31           -3.1055     9.3094    -1.7934 C.2     
  32 C32           -4.3020     2.3835     0.4967 C.3     
  33 F33           -3.9710     1.1751    -0.1258 F       
  34 F34           -5.3160     2.1623     1.4348 F       
  35 F35           -4.7474     3.2968    -0.4649 F       
  36 H36            2.1075    -0.3806     3.3341 H       
  37 H37            3.7814     0.1232     1.6270 H       
  38 H38            4.4525     1.4785    -0.3457 H       
  39 H39            0.5699     6.1224    -2.8669 H       
  40 H40            2.6462     4.8577    -2.8793 H       
  41 H41           -1.8225     1.3201     0.6039 H       
  42 H42           -2.1238     5.5854     3.0593 H       
  43 H43            0.0125     4.3668     2.9779 H       
  44 H44           -0.8275     3.9272     0.5353 H       
  45 H45           -2.7452     4.2322    -0.5871 H       
  46 H46           -0.5784     7.7397    -1.7661 H       
  47 H47           -5.8560     7.9660    -1.0604 H       
  48 H48           -5.0294    10.2730    -1.7529 H       
  49 H49           -2.4504    10.1156    -2.0888 H       
@<TRIPOS>BOND
   1    1    2 am
   2    1   10 1
   3    1   15 1
   4    2    3 1
   5    2   14 2
   6    3    4 2
   7    3   36 1
   8    4    5 1
   9    4   37 1
  10    5    6 ar
  11    5   10 ar
  12    6    7 ar
  13    6   38 1
  14    7    8 ar
  15    8    9 ar
  16    8   13 ar
  17    9   10 ar
  18    9   21 ar
  19   11   12 ar
  20   11   22 1
  21   11   21 ar
  22   12   13 ar
  23   12   39 1
  24   13   40 1
  25   15   16 ar
  26   15   20 ar
  27   16   17 ar
  28   16   41 1
  29   17   18 ar
  30   17   32 1
  31   18   19 ar
  32   18   24 1
  33   19   20 ar
  34   19   42 1
  35   20   43 1
  36   21   44 1
  37   22   23 ar
  38   22   28 ar
  39   23   25 ar
  40   23   45 1
  41   25   26 ar
  42   26   27 ar
  43   26   29 1
  44   27   28 ar
  45   27   31 1
  46   28   46 1
  47   29   30 1
  48   29   47 1
  49   30   31 2
  50   30   48 1
  51   31   49 1
  52   32   33 1
  53   32   34 1
  54   32   35 1

#	End of record

