#	Name: ASD00071089
#	Creating user name:	WinNT
#	Creation time:	15. 06. 2019 18:30

#	Modifying user name:	WinNT
#	Modification time:	15. 06. 2019 18:30

#	Program:	/corina/corina34_cracker 3.40 0067  02.08.2006

@<TRIPOS>MOLECULE
ASD00071089
  54   58    0    0    0
SMALL
NO_CHARGES


@<TRIPOS>ATOM
   1 N1            -0.0157     1.3065     0.0092 N.2     
   2 C2             0.0021    -0.0041     0.0020 C.2     
   3 N3             1.1984    -0.6822     0.0317 N.pl3   
   4 C4             2.3732    -0.0684    -0.6058 C.3     
   5 C5             2.3601     1.4066    -0.2838 C.ar    
   6 C6             3.5306     2.1320    -0.2741 C.ar    
   7 C7             3.5023     3.4864     0.0113 C.ar    
   8 C8             2.3010     4.1157     0.2867 C.ar    
   9 C9             1.1230     3.3980     0.2846 C.ar    
  10 C10            1.1441     2.0306     0.0020 C.ar    
  11 N11           -1.1783    -0.7029    -0.0348 N.pl3   
  12 C12            1.3004    -1.9893     0.6854 C.3     
  13 C13            1.0037    -3.0761    -0.3155 C.ar    
  14 C14            1.9845    -3.4848    -1.2078 C.ar    
  15 C15            1.7083    -4.4854    -2.1279 C.ar    
  16 C16            0.4578    -5.0725    -2.1538 C.ar    
  17 C17           -0.5178    -4.6632    -1.2640 C.ar    
  18 C18           -0.2430    -3.6701    -0.3416 C.ar    
  19 O19            3.2135    -2.9055    -1.1807 O.3     
  20 C20            4.1738    -3.3764    -2.1285 C.3     
  21 C21           -3.5566    -0.8504    -0.7116 C.3     
  22 C22           -2.4545     0.0160    -0.0660 C.3     
  23 C23           -2.9974     0.2322     1.3625 C.3     
  24 C24           -4.5011     0.1120     1.2372 C.ar    
  25 C25           -5.5085     0.5151     2.0979 C.ar    
  26 C26           -6.8320     0.2974     1.7691 C.ar    
  27 C27           -7.1534    -0.3249     0.5770 C.ar    
  28 C28           -6.1503    -0.7275    -0.2825 C.ar    
  29 C29           -4.8224    -0.5100     0.0455 C.ar    
  30 H30            3.2838    -0.5228    -0.2154 H       
  31 H31            2.3231    -0.2105    -1.6853 H       
  32 H32            4.4702     1.6446    -0.4885 H       
  33 H33            4.4211     4.0539     0.0193 H       
  34 H34            2.2857     5.1734     0.5045 H       
  35 H35            0.1873     3.8920     0.5009 H       
  36 H36           -1.1678    -1.6728    -0.0402 H       
  37 H37            2.3088    -2.1217     1.0774 H       
  38 H38            0.5825    -2.0432     1.5038 H       
  39 H39            2.4699    -4.8051    -2.8238 H       
  40 H40            0.2422    -5.8516    -2.8700 H       
  41 H41           -1.4949    -5.1228    -1.2863 H       
  42 H42           -1.0053    -3.3554     0.3556 H       
  43 H43            4.3481    -4.4407    -1.9709 H       
  44 H44            3.7964    -3.2156    -3.1384 H       
  45 H45            5.1091    -2.8319    -1.9991 H       
  46 H46           -3.6672    -0.5978    -1.7661 H       
  47 H47           -3.3210    -1.9086    -0.5980 H       
  48 H48           -2.3499     0.9650    -0.5918 H       
  49 H49           -2.6113    -0.5347     2.0340 H       
  50 H50           -2.7261     1.2241     1.7242 H       
  51 H51           -5.2582     1.0009     3.0294 H       
  52 H52           -7.6152     0.6126     2.4426 H       
  53 H53           -8.1879    -0.4962     0.3185 H       
  54 H54           -6.4021    -1.2135    -1.2135 H       
@<TRIPOS>BOND
   1    1    2 2
   2    1   10 1
   3    2    3 1
   4    2   11 1
   5    3    4 1
   6    3   12 1
   7    4    5 1
   8    4   30 1
   9    4   31 1
  10    5    6 ar
  11    5   10 ar
  12    6    7 ar
  13    6   32 1
  14    7    8 ar
  15    7   33 1
  16    8    9 ar
  17    8   34 1
  18    9   10 ar
  19    9   35 1
  20   11   22 1
  21   11   36 1
  22   12   13 1
  23   12   37 1
  24   12   38 1
  25   13   14 ar
  26   13   18 ar
  27   14   15 ar
  28   14   19 1
  29   15   16 ar
  30   15   39 1
  31   16   17 ar
  32   16   40 1
  33   17   18 ar
  34   17   41 1
  35   18   42 1
  36   19   20 1
  37   20   43 1
  38   20   44 1
  39   20   45 1
  40   21   22 1
  41   21   29 1
  42   21   46 1
  43   21   47 1
  44   22   23 1
  45   22   48 1
  46   23   24 1
  47   23   49 1
  48   23   50 1
  49   24   25 ar
  50   24   29 ar
  51   25   26 ar
  52   25   51 1
  53   26   27 ar
  54   26   52 1
  55   27   28 ar
  56   27   53 1
  57   28   29 ar
  58   28   54 1

#	End of record

