#	Name: ASD01881154
#	Creating user name:	WinNT
#	Creation time:	15. 06. 2019 19:42

#	Modifying user name:	WinNT
#	Modification time:	15. 06. 2019 19:42

#	Program:	/corina/corina34_cracker 3.40 0067  02.08.2006

@<TRIPOS>MOLECULE
ASD01881154
  47   49    0    0    0
SMALL
NO_CHARGES


@<TRIPOS>ATOM
   1 Cl1            8.4270     3.9363    -0.0525 Cl      
   2 N2            -0.0158     1.3136     0.0093 N.ar    
   3 C3             0.0021    -0.0041     0.0020 C.ar    
   4 N4             1.1321    -0.6824    -0.0120 N.ar    
   5 C5             2.2981    -0.0570    -0.0197 C.ar    
   6 C6             2.3199     1.3290    -0.0130 C.ar    
   7 C7             1.1114     2.0071     0.0022 C.ar    
   8 C8             3.6262     2.0803    -0.0209 C.3     
   9 O9             3.3675     3.4856    -0.0115 O.3     
  10 C10            4.4452     4.3105    -0.0170 C.ar    
  11 C11            4.2641     5.6906    -0.0084 C.ar    
  12 C12            5.3540     6.5246    -0.0136 C.ar    
  13 C13            6.6496     5.9966    -0.0274 C.ar    
  14 C14            6.8267     4.6089    -0.0353 C.ar    
  15 C15            5.7274     3.7764    -0.0254 C.ar    
  16 C16            5.5063     8.0253    -0.0072 C.3     
  17 N17            6.9494     8.2905    -0.0183 N.am    
  18 C18            7.6048     7.1171    -0.0299 C.2     
  19 O19            8.8148     6.9979    -0.0413 O.2     
  20 C20           -1.7602    -1.0018    -1.4291 C.3     
  21 C21           -1.3043    -0.7553     0.0105 C.3     
  22 C22            7.8029    10.0696     1.4266 C.3     
  23 C23            7.5732     9.6160    -0.0165 C.3     
  24 C24            4.0074    -1.0994    -1.4829 C.3     
  25 C25            3.5851    -0.8409    -0.0352 C.3     
  26 H26            1.0898     3.0868     0.0075 H       
  27 H27            4.2053     1.8115     0.8626 H       
  28 H28            4.1893     1.8205    -0.9173 H       
  29 H29            3.2667     6.1047     0.0019 H       
  30 H30            5.8639     2.7051    -0.0315 H       
  31 H31            5.0399     8.4530    -0.8947 H       
  32 H32            5.0552     8.4440     0.8924 H       
  33 H33           -1.0065    -1.5894    -1.9533 H       
  34 H34           -2.7050    -1.5452    -1.4230 H       
  35 H35           -1.8937    -0.0465    -1.9366 H       
  36 H36           -1.1707    -1.7107     0.5179 H       
  37 H37           -2.0580    -0.1677     0.5347 H       
  38 H38            8.2670    11.0559     1.4279 H       
  39 H39            6.8474    10.1170     1.9490 H       
  40 H40            8.4579     9.3592     1.9309 H       
  41 H41            8.5287     9.5687    -0.5389 H       
  42 H42            6.9183    10.3265    -0.5208 H       
  43 H43            4.1554    -0.1479    -1.9937 H       
  44 H44            4.9383    -1.6664    -1.4941 H       
  45 H45            3.2295    -1.6681    -1.9923 H       
  46 H46            4.3631    -0.2722     0.4741 H       
  47 H47            3.4372    -1.7924     0.4755 H       
@<TRIPOS>BOND
   1    1   14 1
   2    2    3 ar
   3    2    7 ar
   4    3    4 ar
   5    3   21 1
   6    4    5 ar
   7    5    6 ar
   8    5   25 1
   9    6    7 ar
  10    6    8 1
  11    7   26 1
  12    8    9 1
  13    8   27 1
  14    8   28 1
  15    9   10 1
  16   10   11 ar
  17   10   15 ar
  18   11   12 ar
  19   11   29 1
  20   12   13 ar
  21   12   16 1
  22   13   14 ar
  23   13   18 1
  24   14   15 ar
  25   15   30 1
  26   16   17 1
  27   16   31 1
  28   16   32 1
  29   17   18 am
  30   17   23 1
  31   18   19 2
  32   20   21 1
  33   20   33 1
  34   20   34 1
  35   20   35 1
  36   21   36 1
  37   21   37 1
  38   22   23 1
  39   22   38 1
  40   22   39 1
  41   22   40 1
  42   23   41 1
  43   23   42 1
  44   24   25 1
  45   24   43 1
  46   24   44 1
  47   24   45 1
  48   25   46 1
  49   25   47 1

#	End of record

