#	Name: ASD01811874
#	Creating user name:	WinNT
#	Creation time:	15. 06. 2019 19:27

#	Modifying user name:	WinNT
#	Modification time:	15. 06. 2019 19:27

#	Program:	/corina/corina34_cracker 3.40 0067  02.08.2006

@<TRIPOS>MOLECULE
ASD01811874
  34   36    0    0    0
SMALL
NO_CHARGES


@<TRIPOS>ATOM
   1 C1             0.3039     1.7914     0.5708 C.ar    
   2 C2             0.1651     0.4070     0.5844 C.ar    
   3 C3             1.2713    -0.3979     0.3843 C.ar    
   4 C4             2.5349     0.1709     0.1672 C.ar    
   5 C5             2.6675     1.5584     0.1560 C.ar    
   6 C6             1.5406     2.3579     0.3589 C.ar    
   7 C7             3.6671    -0.7452    -0.0417 C.2     
   8 N8             4.6082    -0.5687    -0.9000 N.2     
   9 C9             4.6464     0.6033    -1.7738 C.3     
  10 C10            4.8055     1.8367    -0.9273 C.2     
  11 N11            3.8779     2.2057    -0.0469 N.am    
  12 S12            6.1237     2.7272    -1.0889 S.2     
  13 C13            3.7278    -1.9625     0.8006 C.ar    
  14 C14            4.4369    -3.0813     0.3641 C.ar    
  15 C15            4.4901    -4.2119     1.1533 C.ar    
  16 C16            3.8415    -4.2373     2.3750 C.ar    
  17 C17            3.1364    -3.1306     2.8134 C.ar    
  18 C18            3.0807    -1.9922     2.0358 C.ar    
  19 S19           -1.4172    -0.3189     0.8567 S.3     
  20 C20           -2.4987     1.1235     1.0579 C.3     
  21 H21           -0.5598     2.4219     0.7221 H       
  22 H22            1.1617    -1.4723     0.3956 H       
  23 H23            1.6404     3.4332     0.3496 H       
  24 H24            5.4894     0.5200    -2.4597 H       
  25 H25            3.7173     0.6667    -2.3404 H       
  26 H26            4.0625     2.9888     0.4950 H       
  27 H27            4.9431    -3.0629    -0.5897 H       
  28 H28            5.0389    -5.0789     0.8164 H       
  29 H29            3.8854    -5.1248     2.9889 H       
  30 H30            2.6321    -3.1564     3.7680 H       
  31 H31            2.5300    -1.1289     2.3790 H       
  32 H32           -2.4664     1.7308     0.1533 H       
  33 H33           -3.5210     0.7893     1.2348 H       
  34 H34           -2.1585     1.7172     1.9064 H       
@<TRIPOS>BOND
   1    1    2 ar
   2    1    6 ar
   3    1   21 1
   4    2    3 ar
   5    2   19 1
   6    3    4 ar
   7    3   22 1
   8    4    5 ar
   9    4    7 1
  10    5    6 ar
  11    5   11 1
  12    6   23 1
  13    7    8 2
  14    7   13 1
  15    8    9 1
  16    9   10 1
  17    9   24 1
  18    9   25 1
  19   10   11 am
  20   10   12 2
  21   11   26 1
  22   13   14 ar
  23   13   18 ar
  24   14   15 ar
  25   14   27 1
  26   15   16 ar
  27   15   28 1
  28   16   17 ar
  29   16   29 1
  30   17   18 ar
  31   17   30 1
  32   18   31 1
  33   19   20 1
  34   20   32 1
  35   20   33 1
  36   20   34 1

#	End of record

