#	Name: ASD01911878
#	Creating user name:	WinNT
#	Creation time:	15. 06. 2019 19:58

#	Modifying user name:	WinNT
#	Modification time:	15. 06. 2019 19:58

#	Program:	/corina/corina34_cracker 3.40 0067  02.08.2006

@<TRIPOS>MOLECULE
ASD01911878
  40   42    0    0    0
SMALL
NO_CHARGES


@<TRIPOS>ATOM
   1 C1            -0.7964     1.4658    -0.5685 C.ar    
   2 C2            -0.8759     0.0891    -0.7678 C.ar    
   3 C3            -0.7006    -0.4174    -2.0492 C.ar    
   4 N4            -0.4624     0.3894    -3.0640 N.ar    
   5 C5            -0.3812     1.6963    -2.9085 C.ar    
   6 C6            -0.5444     2.2755    -1.6635 C.ar    
   7 N7            -1.1279    -0.7693     0.3057 N.pl3   
   8 C8            -1.2217    -2.1467     0.0915 C.ar    
   9 C9            -0.0936    -2.8728    -0.2723 C.ar    
  10 C10           -0.1858    -4.2345    -0.4847 C.ar    
  11 C11           -1.3989    -4.8795    -0.3364 C.ar    
  12 C12           -2.5303    -4.1597     0.0270 C.ar    
  13 C13           -2.4401    -2.7925     0.2472 C.ar    
  14 N14           -3.7576    -4.8133     0.1764 N.am    
  15 C15           -4.9035    -4.1733    -0.1299 C.2     
  16 C16           -6.2052    -4.8265     0.1232 C.ar    
  17 O17           -4.8666    -3.0590    -0.6144 O.2     
  18 C18           -7.3937    -4.1664    -0.1928 C.ar    
  19 C19           -8.6057    -4.7813     0.0459 C.ar    
  20 C20           -8.6449    -6.0493     0.5973 C.ar    
  21 C21           -7.4698    -6.7100     0.9133 C.ar    
  22 C22           -6.2509    -6.1083     0.6742 C.ar    
  23 Br23          -7.5351    -8.4430     1.6673 Br      
  24 C24           -1.2936    -0.2250     1.6557 C.3     
  25 H25           -0.9324     1.8914     0.4147 H       
  26 H26           -0.7597    -1.4828    -2.2157 H       
  27 H27           -0.1841     2.3232    -3.7656 H       
  28 H28           -0.4764     3.3469    -1.5464 H       
  29 H29            0.8559    -2.3717    -0.3893 H       
  30 H30            0.6921    -4.7964    -0.7676 H       
  31 H31           -1.4676    -5.9442    -0.5036 H       
  32 H32           -3.3181    -2.2308     0.5302 H       
  33 H33           -3.7842    -5.7272     0.5004 H       
  34 H34           -7.3648    -3.1763    -0.6231 H       
  35 H35           -9.5258    -4.2712    -0.1980 H       
  36 H36           -9.5963    -6.5258     0.7824 H       
  37 H37           -5.3348    -6.6243     0.9210 H       
  38 H38           -2.3451     0.0040     1.8286 H       
  39 H39           -0.9566    -0.9592     2.3874 H       
  40 H40           -0.7023     0.6852     1.7555 H       
@<TRIPOS>BOND
   1    1    2 ar
   2    1    6 ar
   3    1   25 1
   4    2    3 ar
   5    2    7 1
   6    3    4 ar
   7    3   26 1
   8    4    5 ar
   9    5    6 ar
  10    5   27 1
  11    6   28 1
  12    7    8 1
  13    7   24 1
  14    8    9 ar
  15    8   13 ar
  16    9   10 ar
  17    9   29 1
  18   10   11 ar
  19   10   30 1
  20   11   12 ar
  21   11   31 1
  22   12   13 ar
  23   12   14 1
  24   13   32 1
  25   14   15 am
  26   14   33 1
  27   15   16 1
  28   15   17 2
  29   16   18 ar
  30   16   22 ar
  31   18   19 ar
  32   18   34 1
  33   19   20 ar
  34   19   35 1
  35   20   21 ar
  36   20   36 1
  37   21   22 ar
  38   21   23 1
  39   22   37 1
  40   24   38 1
  41   24   39 1
  42   24   40 1

#	End of record

