#	Name: ASD03470010
#	Creating user name:	WinNT
#	Creation time:	15. 06. 2019 20:42

#	Modifying user name:	WinNT
#	Modification time:	15. 06. 2019 20:42

#	Program:	/corina/corina34_cracker 3.40 0067  02.08.2006

@<TRIPOS>MOLECULE
ASD03470010
 126  126    0    0    0
SMALL
NO_CHARGES


@<TRIPOS>ATOM
   1 N1            -0.6485     0.8385    -0.3276 N.am    
   2 C2             0.7461     1.3306    -0.3251 C.3     
   3 C3             0.7577     2.7285    -0.8963 C.2     
   4 O4            -0.2524     3.2083    -1.3600 O.2     
   5 C5             1.2681     1.3660     1.1174 C.3     
   6 N6             1.9229     3.4305    -0.8732 N.am    
   7 C7             1.8934     4.8226    -1.3580 C.3     
   8 C8             1.8915     5.7449    -0.1643 C.2     
   9 O9             2.9280     6.2460     0.2232 O.2     
  10 C10            3.1342     5.0903    -2.2141 C.3     
  11 C11            3.0825     4.2218    -3.4726 C.3     
  12 C12            1.8945     4.6474    -4.3376 C.3     
  13 C13            4.3792     4.3958    -4.2659 C.3     
  14 N14            0.7071     5.9939     0.4619 N.am    
  15 C15            0.7816     6.8367     1.6773 C.3     
  16 C16           -0.5833     7.4211     1.9330 C.2     
  17 O17           -1.4725     7.2712     1.1212 O.2     
  18 C18            1.1986     5.9625     2.8659 C.3     
  19 C19            2.6189     5.4398     2.6411 C.3     
  20 C20            3.0350     4.5674     3.8272 C.3     
  21 C21            4.4552     4.0447     3.6023 C.3     
  22 N22            4.8547     3.2071     4.7411 N.3     
  23 N23           -0.8049     8.1160     3.0819 N.am    
  24 C24           -2.1833     8.5822     3.3248 C.3     
  25 C25           -2.8157     7.6873     4.3620 C.2     
  26 O26           -2.8297     8.0145     5.5292 O.2     
  27 C27           -2.1592    10.0260     3.8295 C.3     
  28 C28           -3.5822    10.4693     4.1752 C.3     
  29 C29           -1.2797    10.1152     5.0782 C.3     
  30 C30           -4.4304    10.4995     2.9023 C.3     
  31 N31           -3.3601     6.5075     3.9477 N.am    
  32 C32           -3.8831     5.6237     5.0146 C.3     
  33 C33           -4.8718     4.6669     4.3995 C.2     
  34 O34           -5.1988     4.7906     3.2375 O.2     
  35 C35           -2.7184     4.8337     5.6237 C.3     
  36 C36           -2.0124     4.0628     4.5383 C.2     
  37 O37           -1.0016     3.2367     4.8507 O.3     
  38 O38           -2.3561     4.1883     3.3867 O.2     
  39 N39           -5.3865     3.6676     5.1623 N.am    
  40 C40           -6.2782     2.7000     4.4961 C.3     
  41 C41           -5.5069     1.4268     4.2514 C.2     
  42 O42           -5.5770     0.5022     5.0303 O.2     
  43 C43           -7.4857     2.4142     5.3920 C.3     
  44 C44           -8.3054     3.6694     5.5458 C.2     
  45 N45           -9.4242     3.6558     6.2972 N.am    
  46 O46           -7.9583     4.6918     4.9935 O.2     
  47 N47           -4.7262     1.3508     3.1327 N.am    
  48 C48           -3.9207     0.1158     2.9928 C.3     
  49 C49           -3.5294    -0.0349     1.5457 C.2     
  50 O50           -3.9929     0.7137     0.7086 O.2     
  51 C51           -2.6552     0.2471     3.8487 C.3     
  52 C52           -3.0443     0.3189     5.3266 C.3     
  53 S53           -1.5472     0.4743     6.3391 S.3     
  54 C54           -2.2028     0.5436     8.0291 C.3     
  55 N55           -2.6499    -1.0079     1.1938 N.am    
  56 C56           -2.2222    -1.0495    -0.2165 C.3     
  57 C57           -0.8117    -0.5184    -0.3021 C.2     
  58 O58            0.1338    -1.2732    -0.3399 O.2     
  59 C59           -2.2706    -2.4877    -0.7365 C.3     
  60 C60           -3.6980    -2.9708    -0.7453 C.2     
  61 O61           -4.5855    -2.2400    -0.3737 O.2     
  62 O62           -3.9835    -4.2132    -1.1658 O.3     
  63 H63           -1.4077     1.4459    -0.3292 H       
  64 H64            1.3741     0.6770    -0.9285 H       
  65 H65            1.2344     0.3621     1.5408 H       
  66 H66            2.2961     1.7283     1.1230 H       
  67 H67            0.6446     2.0327     1.7131 H       
  68 H68            2.7464     3.0375    -0.5392 H       
  69 H69            0.9966     4.9995    -1.9498 H       
  70 H70            3.1589     6.1421    -2.4992 H       
  71 H71            4.0297     4.8479    -1.6418 H       
  72 H72            2.9684     3.1759    -3.1878 H       
  73 H73            2.0086     5.6934    -4.6224 H       
  74 H74            1.8577     4.0287    -5.2342 H       
  75 H75            0.9707     4.5235    -3.7725 H       
  76 H76            5.2256     4.0925    -3.6497 H       
  77 H77            4.3424     3.7770    -5.1625 H       
  78 H78            4.4934     5.4417    -4.5507 H       
  79 H79           -0.1372     5.6287     0.1459 H       
  80 H80            1.5102     7.6336     1.5316 H       
  81 H81            1.1700     6.5549     3.7804 H       
  82 H82            0.5118     5.1209     2.9566 H       
  83 H83            2.6475     4.8473     1.7266 H       
  84 H84            3.3056     6.2813     2.5504 H       
  85 H85            3.0063     5.1599     4.7416 H       
  86 H86            2.3482     3.7259     3.9178 H       
  87 H87            4.4838     3.4522     2.6879 H       
  88 H88            5.1420     4.8863     3.5117 H       
  89 H89            5.7899     2.8495     4.6165 H       
  90 H90            4.7745     3.7151     5.6093 H       
  91 H91           -0.0963     8.2929     3.7213 H       
  92 H92           -2.7647     8.5253     2.4046 H       
  93 H93           -1.7549    10.6756     3.0531 H       
  94 H94           -4.0187     9.7676     4.8861 H       
  95 H95           -3.5552    11.4651     4.6176 H       
  96 H96           -0.3108     9.6598     4.8735 H       
  97 H97           -1.1392    11.1615     5.3497 H       
  98 H98           -1.7624     9.5879     5.9010 H       
  99 H99           -3.9940    11.2011     2.1914 H       
 100 H100          -4.4574     9.5037     2.4599 H       
 101 H101          -5.4442    10.8153     3.1486 H       
 102 H102          -3.3875     6.2478     3.0104 H       
 103 H103          -4.3690     6.2198     5.7858 H       
 104 H104          -2.0178     5.5239     6.0937 H       
 105 H105          -3.1019     4.1397     6.3716 H       
 106 H106          -0.5794     2.7637     4.1205 H       
 107 H107          -5.1764     3.5800     6.1067 H       
 108 H108          -6.6183     3.1008     3.5417 H       
 109 H109          -8.0975     1.6339     4.9393 H       
 110 H110          -7.1410     2.0830     6.3716 H       
 111 H111          -9.7018     2.8381     6.7389 H       
 112 H112          -9.9518     4.4637     6.3962 H       
 113 H113          -4.6824     2.0669     2.4778 H       
 114 H114          -4.5012    -0.7443     3.3218 H       
 115 H115          -2.0135    -0.6183     3.6835 H       
 116 H116          -2.1202     1.1548     3.5693 H       
 117 H117          -3.6860     1.1843     5.4918 H       
 118 H118          -3.5793    -0.5887     5.6060 H       
 119 H119          -1.3780     0.6388     8.7352 H       
 120 H120          -2.8656     1.4035     8.1266 H       
 121 H121          -2.7589    -0.3696     8.2408 H       
 122 H122          -2.2990    -1.6427     1.8401 H       
 123 H123          -2.8723    -0.4186    -0.8230 H       
 124 H124          -1.8693    -2.5215    -1.7494 H       
 125 H125          -1.6739    -3.1289    -0.0877 H       
 126 H126          -4.9134    -4.4781    -1.1533 H       
@<TRIPOS>BOND
   1    1   57 am
   2    1    2 1
   3    1   63 1
   4    2    3 1
   5    2    5 1
   6    2   64 1
   7    3    6 am
   8    3    4 2
   9    5   65 1
  10    5   66 1
  11    5   67 1
  12    6    7 1
  13    6   68 1
  14    7    8 1
  15    7   10 1
  16    7   69 1
  17    8   14 am
  18    8    9 2
  19   10   11 1
  20   10   70 1
  21   10   71 1
  22   11   13 1
  23   11   12 1
  24   11   72 1
  25   12   73 1
  26   12   74 1
  27   12   75 1
  28   13   76 1
  29   13   77 1
  30   13   78 1
  31   14   15 1
  32   14   79 1
  33   15   18 1
  34   15   16 1
  35   15   80 1
  36   16   17 2
  37   16   23 am
  38   18   19 1
  39   18   81 1
  40   18   82 1
  41   19   20 1
  42   19   83 1
  43   19   84 1
  44   20   21 1
  45   20   85 1
  46   20   86 1
  47   21   22 1
  48   21   87 1
  49   21   88 1
  50   22   89 1
  51   22   90 1
  52   23   24 1
  53   23   91 1
  54   24   25 1
  55   24   27 1
  56   24   92 1
  57   25   26 2
  58   25   31 am
  59   27   29 1
  60   27   28 1
  61   27   93 1
  62   28   30 1
  63   28   94 1
  64   28   95 1
  65   29   96 1
  66   29   97 1
  67   29   98 1
  68   30   99 1
  69   30  100 1
  70   30  101 1
  71   31   32 1
  72   31  102 1
  73   32   33 1
  74   32   35 1
  75   32  103 1
  76   33   34 2
  77   33   39 am
  78   35   36 1
  79   35  104 1
  80   35  105 1
  81   36   37 1
  82   36   38 2
  83   37  106 1
  84   39   40 1
  85   39  107 1
  86   40   41 1
  87   40   43 1
  88   40  108 1
  89   41   47 am
  90   41   42 2
  91   43   44 1
  92   43  109 1
  93   43  110 1
  94   44   46 2
  95   44   45 am
  96   45  111 1
  97   45  112 1
  98   47   48 1
  99   47  113 1
 100   48   51 1
 101   48   49 1
 102   48  114 1
 103   49   55 am
 104   49   50 2
 105   51   52 1
 106   51  115 1
 107   51  116 1
 108   52   53 1
 109   52  117 1
 110   52  118 1
 111   53   54 1
 112   54  119 1
 113   54  120 1
 114   54  121 1
 115   55   56 1
 116   55  122 1
 117   56   59 1
 118   56   57 1
 119   56  123 1
 120   57   58 2
 121   59   60 1
 122   59  124 1
 123   59  125 1
 124   60   61 2
 125   60   62 1
 126   62  126 1

#	End of record

