#	Name: ASD01910091
#	Creating user name:	WinNT
#	Creation time:	15. 06. 2019 19:55

#	Modifying user name:	WinNT
#	Modification time:	15. 06. 2019 19:55

#	Program:	/corina/corina34_cracker 3.40 0067  02.08.2006

@<TRIPOS>MOLECULE
ASD01910091
  25   26    0    0    0
SMALL
NO_CHARGES


@<TRIPOS>ATOM
   1 C1            -0.0173     1.4278     0.0099 C.ar    
   2 C2             0.0021    -0.0041     0.0020 C.1     
   3 C3             0.0180    -1.1779    -0.0044 C.1     
   4 C4             0.0374    -2.6098    -0.0123 C.ar    
   5 C5            -1.1557    -3.3367    -0.0048 C.ar    
   6 N6            -1.1376    -4.6533    -0.0116 N.ar    
   7 C7            -0.0083    -5.3350    -0.0260 C.ar    
   8 C8             1.2167    -4.6896    -0.0346 C.ar    
   9 C9             1.2536    -3.3061    -0.0335 C.ar    
  10 C10            1.1858     2.1378     0.0022 C.ar    
  11 C11            1.1496     3.5206     0.0095 C.ar    
  12 C12           -0.0868     4.1517     0.0243 C.ar    
  13 C13           -1.2400     3.3877     0.0312 C.ar    
  14 N14           -1.1806     2.0722     0.0189 N.ar    
  15 C15           -0.1719     5.6562     0.0331 C.3     
  16 Br16           2.8225    -5.6881    -0.0547 Br      
  17 H17           -2.1009    -2.8143     0.0070 H       
  18 H18           -0.0398    -6.4145    -0.0307 H       
  19 H19            2.1950    -2.7769    -0.0405 H       
  20 H20            2.1306     1.6146    -0.0089 H       
  21 H21            2.0631     4.0966     0.0042 H       
  22 H22           -2.2027     3.8770     0.0427 H       
  23 H23           -0.2018     6.0245    -0.9923 H       
  24 H24           -1.0762     5.9659     0.5570 H       
  25 H25            0.7008     6.0665     0.5412 H       
@<TRIPOS>BOND
   1    1    2 1
   2    1   10 ar
   3    1   14 ar
   4    2    3 3
   5    3    4 1
   6    4    5 ar
   7    4    9 ar
   8    5    6 ar
   9    5   17 1
  10    6    7 ar
  11    7    8 ar
  12    7   18 1
  13    8    9 ar
  14    8   16 1
  15    9   19 1
  16   10   11 ar
  17   10   20 1
  18   11   12 ar
  19   11   21 1
  20   12   13 ar
  21   12   15 1
  22   13   14 ar
  23   13   22 1
  24   15   23 1
  25   15   24 1
  26   15   25 1

#	End of record

