#	Name: ASD00111086
#	Creating user name:	WinNT
#	Creation time:	15. 06. 2019 18:30

#	Modifying user name:	WinNT
#	Modification time:	15. 06. 2019 18:30

#	Program:	/corina/corina34_cracker 3.40 0067  02.08.2006

@<TRIPOS>MOLECULE
ASD00111086
  40   42    0    0    0
SMALL
NO_CHARGES


@<TRIPOS>ATOM
   1 N1            -0.7423     1.0537     0.0248 N.am    
   2 C2            -0.3340    -0.3442     0.1229 C.3     
   3 C3             0.6302    -0.5204     1.3012 C.3     
   4 C4             2.0134    -0.0934     0.8630 C.ar    
   5 C5             2.2909     1.2334     0.6413 C.ar    
   6 C6             1.2158     2.2798     0.8334 C.3     
   7 C7             0.1846     2.1360    -0.2915 C.3     
   8 C8             3.5557     1.6240     0.2415 C.ar    
   9 C9             4.5467     0.6686     0.0643 C.ar    
  10 C10            4.2640    -0.6707     0.2884 C.ar    
  11 C11            2.9970    -1.0515     0.6878 C.ar    
  12 O12            5.7921     1.0448    -0.3286 O.3     
  13 C13            6.7620     0.0080    -0.4910 C.3     
  14 C14            0.1720     0.3491     2.4739 C.3     
  15 C15           -1.3344     0.5162     2.6831 C.3     
  16 C16           -0.5201    -0.3516     3.6447 C.3     
  17 C17           -2.0387     1.3592     0.2308 C.2     
  18 O18           -2.8346     0.4817     0.4906 O.2     
  19 C19           -2.4993     2.7911     0.1382 C.3     
  20 F20           -3.8741     2.8558     0.3891 F       
  21 F21           -1.8158     3.5628     1.0840 F       
  22 F22           -2.2356     3.2838    -1.1443 F       
  23 H23           -1.2137    -0.9688     0.2778 H       
  24 H24            0.1633    -0.6423    -0.8001 H       
  25 H25            0.6495    -1.5671     1.6046 H       
  26 H26            0.7287     2.1311     1.7971 H       
  27 H27            1.6619     3.2736     0.7959 H       
  28 H28            0.6974     1.9124    -1.2269 H       
  29 H29           -0.3695     3.0687    -0.3967 H       
  30 H30            3.7713     2.6679     0.0676 H       
  31 H31            5.0336    -1.4158     0.1503 H       
  32 H32            2.7748    -2.0938     0.8626 H       
  33 H33            6.8987    -0.5133     0.4565 H       
  34 H34            6.4168    -0.6972    -1.2471 H       
  35 H35            7.7101     0.4435    -0.8062 H       
  36 H36            0.8098     1.2026     2.7036 H       
  37 H37           -1.6876     1.4796     3.0508 H       
  38 H38           -1.9990     0.0068     1.9854 H       
  39 H39           -0.6490    -1.4320     3.5796 H       
  40 H40           -0.3376     0.0408     4.6451 H       
@<TRIPOS>BOND
   1    1    2 1
   2    1    7 1
   3    1   17 am
   4    2    3 1
   5    2   23 1
   6    2   24 1
   7    3    4 1
   8    3   14 1
   9    3   25 1
  10    4    5 ar
  11    4   11 ar
  12    5    6 1
  13    5    8 ar
  14    6    7 1
  15    6   26 1
  16    6   27 1
  17    7   28 1
  18    7   29 1
  19    8    9 ar
  20    8   30 1
  21    9   10 ar
  22    9   12 1
  23   10   11 ar
  24   10   31 1
  25   11   32 1
  26   12   13 1
  27   13   33 1
  28   13   34 1
  29   13   35 1
  30   14   15 1
  31   14   16 1
  32   14   36 1
  33   15   16 1
  34   15   37 1
  35   15   38 1
  36   16   39 1
  37   16   40 1
  38   17   18 2
  39   17   19 1
  40   19   20 1
  41   19   21 1
  42   19   22 1

#	End of record

