#	Name: ASD01881667
#	Creating user name:	WinNT
#	Creation time:	15. 06. 2019 19:43

#	Modifying user name:	WinNT
#	Modification time:	15. 06. 2019 19:43

#	Program:	/corina/corina34_cracker 3.40 0067  02.08.2006

@<TRIPOS>MOLECULE
ASD01881667
  42   44    0    0    0
SMALL
NO_CHARGES


@<TRIPOS>ATOM
   1 N1            -0.0154     1.2839     0.0091 N.pl3   
   2 N2             0.0021    -0.0041     0.0020 N.2     
   3 N3             1.2033    -0.4649    -0.0119 N.2     
   4 C4             2.0741     0.5645    -0.0147 C.ar    
   5 C5             1.2843     1.7298    -0.0009 C.ar    
   6 C6             3.4670     0.6759    -0.0271 C.ar    
   7 C7             4.0484     1.9285    -0.0255 C.ar    
   8 C8             3.2560     3.0739    -0.0118 C.ar    
   9 C9             1.8924     2.9784    -0.0004 C.ar    
  10 O10            5.4033     2.0444    -0.0370 O.3     
  11 C11            5.9411     3.3683    -0.0346 C.3     
  12 S12            9.8391     2.5150    -0.0735 S.3     
  13 C13            9.4865     4.1879    -0.0611 C.2     
  14 N14            8.2096     4.3733    -0.0490 N.2     
  15 C15            7.4465     3.2990    -0.0485 C.2     
  16 C16            8.1169     2.1430    -0.0607 C.2     
  17 C17           10.5177     5.2869    -0.0638 C.3     
  18 C18           -1.2133     2.1272     0.0196 C.3     
  19 C19           -1.6228     2.4135     1.4657 C.3     
  20 C20           -0.4829     3.1377     2.1848 C.3     
  21 C21           -2.8739     3.2942     1.4767 C.3     
  22 C22           -1.9211     1.0947     2.1819 C.3     
  23 Br23           4.5472    -0.8761    -0.0451 Br      
  24 H24            3.7236     4.0474    -0.0103 H       
  25 H25            1.2882     3.8735     0.0099 H       
  26 H26            5.5939     3.9031    -0.9187 H       
  27 H27            5.6098     3.8935     0.8612 H       
  28 H28            7.6801     1.1552    -0.0625 H       
  29 H29           11.5156     4.8486    -0.0753 H       
  30 H30           10.3837     5.9087    -0.9490 H       
  31 H31           10.3996     5.8981     0.8309 H       
  32 H32           -1.0007     3.0667    -0.4906 H       
  33 H33           -2.0254     1.6113    -0.4926 H       
  34 H34           -0.2704     4.0772     1.6746 H       
  35 H35           -0.7746     3.3417     3.2150 H       
  36 H36            0.4084     2.5103     2.1769 H       
  37 H37           -3.6859     2.7782     0.9645 H       
  38 H38           -3.1656     3.4981     2.5070 H       
  39 H39           -2.6613     4.2337     0.9666 H       
  40 H40           -1.0299     0.4673     2.1740 H       
  41 H41           -2.2129     1.2987     3.2121 H       
  42 H42           -2.7332     0.5788     1.6696 H       
@<TRIPOS>BOND
   1    1    2 1
   2    1    5 1
   3    1   18 1
   4    2    3 2
   5    3    4 1
   6    4    5 ar
   7    4    6 ar
   8    5    9 ar
   9    6    7 ar
  10    6   23 1
  11    7    8 ar
  12    7   10 1
  13    8    9 ar
  14    8   24 1
  15    9   25 1
  16   10   11 1
  17   11   15 1
  18   11   26 1
  19   11   27 1
  20   12   13 1
  21   12   16 1
  22   13   14 2
  23   13   17 1
  24   14   15 1
  25   15   16 2
  26   16   28 1
  27   17   29 1
  28   17   30 1
  29   17   31 1
  30   18   19 1
  31   18   32 1
  32   18   33 1
  33   19   20 1
  34   19   21 1
  35   19   22 1
  36   20   34 1
  37   20   35 1
  38   20   36 1
  39   21   37 1
  40   21   38 1
  41   21   39 1
  42   22   40 1
  43   22   41 1
  44   22   42 1

#	End of record

