#	Name: ASD03090145
#	Creating user name:	WinNT
#	Creation time:	15. 06. 2019 20:28

#	Modifying user name:	WinNT
#	Modification time:	15. 06. 2019 20:28

#	Program:	/corina/corina34_cracker 3.40 0067  02.08.2006

@<TRIPOS>MOLECULE
ASD03090145
  39   41    0    0    0
SMALL
NO_CHARGES


@<TRIPOS>ATOM
   1 N1             0.4455     1.5130     1.4664 N.ar    
   2 C2             1.5491     2.1900     1.2098 C.ar    
   3 C3             2.7238     1.5360     0.8907 C.ar    
   4 C4             2.7300     0.1386     0.8430 C.ar    
   5 C5             1.5370    -0.5374     1.1228 C.ar    
   6 C6             0.4095     0.1944     1.4320 C.ar    
   7 C7             3.9644    -0.6052     0.5054 C.2     
   8 N8             5.7447    -3.4534    -0.5302 N.pl3   
   9 C9             4.8194    -4.4425    -0.8738 C.ar    
  10 C10            3.6023    -4.0897    -1.4426 C.ar    
  11 C11            2.6900    -5.0699    -1.7810 C.ar    
  12 C12            2.9870    -6.4011    -1.5539 C.ar    
  13 C13            4.1980    -6.7559    -0.9877 C.ar    
  14 C14            5.1171    -5.7815    -0.6527 C.ar    
  15 N15            4.0293    -1.8613     0.1120 N.2     
  16 C16            5.3009    -2.1998    -0.1046 C.2     
  17 N17            6.0687    -1.1642     0.1473 N.2     
  18 N18            5.2232    -0.1142     0.5406 N.pl3   
  19 C19            5.6262     1.2418     0.9215 C.3     
  20 C20            5.7303     2.1138    -0.3313 C.3     
  21 O21            6.1234     3.4364     0.0402 O.3     
  22 Cl22           1.5243     3.9246     1.2733 Cl      
  23 C23            4.5172    -8.2081    -0.7421 C.3     
  24 F24            3.4441    -8.9996    -1.1653 F       
  25 F25            5.6669    -8.5603    -1.4572 F       
  26 F26            4.7371    -8.4125     0.6243 F       
  27 H27            3.6233     2.0958     0.6811 H       
  28 H28            1.4995    -1.6164     1.0963 H       
  29 H29           -0.5154    -0.3189     1.6497 H       
  30 H30            6.6954    -3.6377    -0.5872 H       
  31 H31            3.3694    -3.0500    -1.6196 H       
  32 H32            1.7434    -4.7963    -2.2233 H       
  33 H33            2.2715    -7.1655    -1.8188 H       
  34 H34            6.0626    -6.0593    -0.2106 H       
  35 H35            4.8838     1.6649     1.5981 H       
  36 H36            6.5945     1.2062     1.4209 H       
  37 H37            6.4727     1.6906    -1.0080 H       
  38 H38            4.7620     2.1493    -0.8307 H       
  39 H39            6.2094     4.0454    -0.7060 H       
@<TRIPOS>BOND
   1    1    2 ar
   2    1    6 ar
   3    2    3 ar
   4    2   22 1
   5    3    4 ar
   6    3   27 1
   7    4    5 ar
   8    4    7 1
   9    5    6 ar
  10    5   28 1
  11    6   29 1
  12    7   15 2
  13    7   18 1
  14    8    9 1
  15    8   16 1
  16    8   30 1
  17    9   10 ar
  18    9   14 ar
  19   10   11 ar
  20   10   31 1
  21   11   12 ar
  22   11   32 1
  23   12   13 ar
  24   12   33 1
  25   13   14 ar
  26   13   23 1
  27   14   34 1
  28   15   16 1
  29   16   17 2
  30   17   18 1
  31   18   19 1
  32   19   20 1
  33   19   35 1
  34   19   36 1
  35   20   21 1
  36   20   37 1
  37   20   38 1
  38   21   39 1
  39   23   24 1
  40   23   25 1
  41   23   26 1

#	End of record

