#	Name: ASD01010011
#	Creating user name:	WinNT
#	Creation time:	15. 06. 2019 18:56

#	Modifying user name:	WinNT
#	Modification time:	15. 06. 2019 18:56

#	Program:	/corina/corina34_cracker 3.40 0067  02.08.2006

@<TRIPOS>MOLECULE
ASD01010011
  17   17    0    0    0
SMALL
NO_CHARGES


@<TRIPOS>ATOM
   1 C1            -0.0179     1.4673     0.0101 C.2     
   2 C2             0.0021    -0.0041     0.0020 C.ar    
   3 C3             1.2255    -0.6923    -0.0134 C.ar    
   4 C4             1.2353    -2.0763    -0.0204 C.ar    
   5 C5             0.0397    -2.7794    -0.0127 C.ar    
   6 C6            -1.1749    -2.0988     0.0020 C.ar    
   7 C7            -1.1981    -0.7229     0.0155 C.ar    
   8 O8             1.0263     2.0892     0.0035 O.2     
   9 O9            -1.1942     2.1253     0.0193 O.3     
  10 O10            0.0538    -4.1365    -0.0201 O.3     
  11 O11            2.3940    -0.0032    -0.0217 O.3     
  12 Br12          -2.7983    -3.0686     0.0117 Br      
  13 H13            2.1747    -2.6091    -0.0322 H       
  14 H14           -2.1420    -0.1984     0.0314 H       
  15 H15           -1.1567     3.0915     0.0243 H       
  16 H16            0.0664    -4.5345     0.8611 H       
  17 H17            2.7416     0.1924     0.8592 H       
@<TRIPOS>BOND
   1    1    2 1
   2    1    8 2
   3    1    9 1
   4    2    3 ar
   5    2    7 ar
   6    3    4 ar
   7    3   11 1
   8    4    5 ar
   9    4   13 1
  10    5    6 ar
  11    5   10 1
  12    6    7 ar
  13    6   12 1
  14    7   14 1
  15    9   15 1
  16   10   16 1
  17   11   17 1

#	End of record

