#	Name: ASD08390011
#	Creating user name:	WinNT
#	Creation time:	15. 06. 2019 21:19

#	Modifying user name:	WinNT
#	Modification time:	15. 06. 2019 21:19

#	Program:	/corina/corina34_cracker 3.40 0067  02.08.2006

@<TRIPOS>MOLECULE
ASD08390011
  71   77    0    0    0
SMALL
NO_CHARGES


@<TRIPOS>ATOM
   1 O1            -0.0163     1.3509     0.0095 O.3     
   2 C2             0.0021    -0.0041     0.0020 C.2     
   3 C3             1.2503    -0.4891    -0.6213 C.2     
   4 C4             2.0975     0.7291    -0.8464 C.3     
   5 C5             1.3421     1.8234    -0.0010 C.3     
   6 C6             3.5040     0.6920    -0.4235 C.3     
   7 C7             1.6384     3.0925    -0.7266 C.3     
   8 C8             4.3564     1.9283    -0.6700 C.3     
   9 C9             4.0155     3.0712     0.2422 C.2     
  10 C10            1.3963     5.4509    -1.2429 C.3     
  11 C11            0.5598     4.1706    -0.8624 C.3     
  12 C12            2.7771     3.8713    -0.0618 C.3     
  13 C13            2.8621     5.1145    -0.9210 C.3     
  14 C14           -0.0763     4.4426     0.5069 C.3     
  15 C15            0.4532     5.8184     0.9724 C.3     
  16 C16            0.7830     6.5358    -0.3447 C.3     
  17 C17           -0.5679     8.5039    -0.9852 C.3     
  18 C18           -0.4978     6.9792    -1.0640 C.2     
  19 C19            1.5805     7.7984    -0.1288 C.3     
  20 C20            0.5288     8.8541    -0.0012 C.3     
  21 C21            0.8344    10.2328     0.3745 C.2     
  22 C22            2.7259     7.9607     0.7691 C.3     
  23 C23            3.4822     9.2642     0.5476 C.3     
  24 C24            1.5665    10.4821     1.6827 C.3     
  25 C25            3.0817    10.3926     1.4692 C.3     
  26 O26            3.7272     6.9253     0.8367 O.3     
  27 C27            4.9395     7.4529     1.0908 C.2     
  28 C28            4.9362     8.8911     0.7786 C.2     
  29 C29            0.4863    11.2388    -0.3950 C.2     
  30 C30            5.9901     9.6994     0.7050 C.2     
  31 O31            5.8956     6.8342     1.5141 O.2     
  32 O32           -1.3103     6.2534    -1.5885 O.2     
  33 C33            4.7619     3.3726     1.2738 C.2     
  34 C34            1.5552    -1.7506    -0.9217 C.2     
  35 O35           -0.8796    -0.7164     0.4420 O.2     
  36 O36           -0.4028     3.8341    -1.8619 O.3     
  37 O37            1.2206     5.7803    -2.6315 O.3     
  38 H38            2.0330     1.0071    -1.9036 H       
  39 H39            1.7520     1.8579     1.0052 H       
  40 H40            3.5352     0.4793     0.6525 H       
  41 H41            3.9968    -0.1533    -0.9193 H       
  42 H42            1.9574     2.8359    -1.7359 H       
  43 H43            5.4067     1.6610    -0.5260 H       
  44 H44            4.2273     2.2447    -1.7058 H       
  45 H45            2.3959     4.2013     0.9073 H       
  46 H46            3.3588     4.8098    -1.8753 H       
  47 H47            3.4366     5.9025    -0.5290 H       
  48 H48           -1.1633     4.4743     0.4189 H       
  49 H49            0.2151     3.6724     1.2212 H       
  50 H50           -0.3209     6.3589     1.5196 H       
  51 H51            1.3446     5.7022     1.5870 H       
  52 H52           -0.3702     8.9502    -1.9573 H       
  53 H53           -1.5368     8.8251    -0.6040 H       
  54 H54            2.0076     7.9869    -1.1317 H       
  55 H55            0.0356     8.5141     0.9503 H       
  56 H56            2.2914     8.0217     1.8034 H       
  57 H57            3.3663     9.5891    -0.4920 H       
  58 H58            1.3154    11.4765     2.0518 H       
  59 H59            1.2641     9.7371     2.4166 H       
  60 H60            3.5599    10.2521     2.4404 H       
  61 H61            3.4296    11.3385     1.0494 H       
  62 H62           -0.0348    11.0539    -1.3227 H       
  63 H63            0.7212    12.2508    -0.0999 H       
  64 H64            6.9818     9.3115     0.8853 H       
  65 H65            5.8540    10.7436     0.4650 H       
  66 H66            5.6483     2.7935     1.4867 H       
  67 H67            4.4916     4.2005     1.9125 H       
  68 H68            0.8515    -2.5417    -0.7087 H       
  69 H69            2.5062    -1.9822    -1.3782 H       
  70 H70           -0.8861     3.0159    -1.6829 H       
  71 H71            1.4927     5.0793    -3.2395 H       
@<TRIPOS>BOND
   1    1    2 1
   2    1    5 1
   3    2    3 1
   4    2   35 2
   5    3    4 1
   6    3   34 2
   7    4    5 1
   8    4    6 1
   9    4   38 1
  10    5    7 1
  11    5   39 1
  12    6    8 1
  13    6   40 1
  14    6   41 1
  15    7   12 1
  16    7   11 1
  17    7   42 1
  18    8    9 1
  19    8   43 1
  20    8   44 1
  21    9   33 2
  22    9   12 1
  23   10   13 1
  24   10   16 1
  25   10   37 1
  26   10   11 1
  27   11   14 1
  28   11   36 1
  29   12   13 1
  30   12   45 1
  31   13   46 1
  32   13   47 1
  33   14   15 1
  34   14   48 1
  35   14   49 1
  36   15   16 1
  37   15   50 1
  38   15   51 1
  39   16   19 1
  40   16   18 1
  41   17   18 1
  42   17   20 1
  43   17   52 1
  44   17   53 1
  45   18   32 2
  46   19   20 1
  47   19   22 1
  48   19   54 1
  49   20   21 1
  50   20   55 1
  51   21   24 1
  52   21   29 2
  53   22   26 1
  54   22   23 1
  55   22   56 1
  56   23   25 1
  57   23   28 1
  58   23   57 1
  59   24   25 1
  60   24   58 1
  61   24   59 1
  62   25   60 1
  63   25   61 1
  64   26   27 1
  65   27   28 1
  66   27   31 2
  67   28   30 2
  68   29   62 1
  69   29   63 1
  70   30   64 1
  71   30   65 1
  72   33   66 1
  73   33   67 1
  74   34   68 1
  75   34   69 1
  76   36   70 1
  77   37   71 1

#	End of record

