#	Name: ASD06390012
#	Creating user name:	WinNT
#	Creation time:	15. 06. 2019 21:06

#	Modifying user name:	WinNT
#	Modification time:	15. 06. 2019 21:06

#	Program:	/corina/corina34_cracker 3.40 0067  02.08.2006

@<TRIPOS>MOLECULE
ASD06390012
  46   48    0    0    0
SMALL
NO_CHARGES


@<TRIPOS>ATOM
   1 C1             0.0085     1.5529     0.0808 C.3     
   2 C2             0.0280     0.0232     0.0569 C.3     
   3 S3            -1.6744    -0.6032     0.0500 S.o2    
   4 O4            -2.3097    -0.3345     1.2923 O.2     
   5 O5            -2.3138    -0.2959    -1.1813 O.2     
   6 N6            -1.5085    -2.2506     0.0240 N.am    
   7 C7            -0.8997    -2.9435     1.1621 C.3     
   8 C8            -1.5804    -4.3004     1.3565 C.3     
   9 C9            -0.9649    -5.0071     2.5683 C.3     
  10 N10            0.4906    -5.0832     2.3824 N.am    
  11 C11            1.2323    -3.8469     2.0993 C.3     
  12 C12            0.5921    -3.1533     0.8927 C.3     
  13 C13            1.1332    -6.2647     2.4704 C.2     
  14 O14            0.5096    -7.2781     2.7051 O.2     
  15 C15            2.6265    -6.3264     2.2773 C.3     
  16 N16            3.0818    -7.7156     2.4215 N.3     
  17 C17            4.4419    -7.8293     2.1281 C.ar    
  18 C18            4.8434    -8.1971     0.8789 C.ar    
  19 Cl19           3.6464    -8.5207    -0.3360 Cl      
  20 C20            6.1938    -8.3190     0.5545 C.ar    
  21 C21            7.1692    -8.0775     1.4657 C.ar    
  22 C22            6.8264    -7.6901     2.7873 C.ar    
  23 C23            5.4139    -7.5556     3.1311 C.ar    
  24 N24            5.2772    -7.1897     4.3945 N.2     
  25 S25            6.6824    -7.0389     5.0442 S.3     
  26 N26            7.5863    -7.4050     3.8324 N.2     
  27 Cl27           8.8376    -8.2429     1.0154 Cl      
  28 H28            1.0315     1.9293     0.0849 H       
  29 H29           -0.5114     1.9235    -0.8027 H       
  30 H30           -0.5084     1.8957     0.9771 H       
  31 H31            0.5449    -0.3196    -0.8394 H       
  32 H32            0.5479    -0.3474     0.9403 H       
  33 H33           -1.8144    -2.7568    -0.7448 H       
  34 H34           -1.0249    -2.3422     2.0626 H       
  35 H35           -2.6469    -4.1515     1.5251 H       
  36 H36           -1.4342    -4.9116     0.4659 H       
  37 H37           -1.1886    -4.4422     3.4733 H       
  38 H38           -1.3757    -6.0132     2.6522 H       
  39 H39            1.1877    -3.1875     2.9660 H       
  40 H40            2.2711    -4.0876     1.8737 H       
  41 H41            0.7179    -3.7753     0.0065 H       
  42 H42            1.0719    -2.1879     0.7313 H       
  43 H43            2.8794    -5.9627     1.2814 H       
  44 H44            3.1157    -5.7041     3.0266 H       
  45 H45            2.8804    -8.0681     3.3452 H       
  46 H46            6.4703    -8.6134    -0.4472 H       
@<TRIPOS>BOND
   1    1    2 1
   2    1   28 1
   3    1   29 1
   4    1   30 1
   5    2    3 1
   6    2   31 1
   7    2   32 1
   8    3    4 2
   9    3    5 2
  10    3    6 am
  11    6    7 1
  12    6   33 1
  13    7    8 1
  14    7   12 1
  15    7   34 1
  16    8    9 1
  17    8   35 1
  18    8   36 1
  19    9   10 1
  20    9   37 1
  21    9   38 1
  22   10   11 1
  23   10   13 am
  24   11   12 1
  25   11   39 1
  26   11   40 1
  27   12   41 1
  28   12   42 1
  29   13   14 2
  30   13   15 1
  31   15   16 1
  32   15   43 1
  33   15   44 1
  34   16   17 1
  35   16   45 1
  36   17   18 ar
  37   17   23 ar
  38   18   19 1
  39   18   20 ar
  40   20   21 ar
  41   20   46 1
  42   21   22 ar
  43   21   27 1
  44   22   23 ar
  45   22   26 2
  46   23   24 2
  47   24   25 1
  48   25   26 1

#	End of record

