#	Name: ASD03240917
#	Creating user name:	WinNT
#	Creation time:	15. 06. 2019 20:35

#	Modifying user name:	WinNT
#	Modification time:	15. 06. 2019 20:35

#	Program:	/corina/corina34_cracker 3.40 0067  02.08.2006

@<TRIPOS>MOLECULE
ASD03240917
  55   60    0    0    0
SMALL
NO_CHARGES


@<TRIPOS>ATOM
   1 C1            -0.0188     1.5336     0.0105 C.3     
   2 C2             0.0021    -0.0041     0.0020 C.3     
   3 C3             1.3815     0.0967    -0.6702 C.3     
   4 C4             1.5179     1.4762    -0.0045 C.3     
   5 O5            -0.5818     2.1049    -1.1721 O.3     
   6 C6             2.3746    -0.9181    -0.1653 C.ar    
   7 C7             3.3681    -1.3872    -1.0061 C.ar    
   8 C8             4.2807    -2.3160    -0.5495 C.ar    
   9 C9             4.2000    -2.7820     0.7628 C.ar    
  10 C10            3.1960    -2.3051     1.6056 C.ar    
  11 C11            2.2926    -1.3725     1.1389 C.ar    
  12 N12            6.9708    -6.5925    -0.0339 N.pl3   
  13 C13            7.8725    -7.5239     0.4048 C.2     
  14 N14            8.3293    -7.5334     1.6696 N.2     
  15 C15            7.9387    -6.6531     2.5548 C.2     
  16 C16            6.9763    -5.6270     2.1591 C.ar    
  17 C17            6.5203    -4.6593     3.0606 C.ar    
  18 C18            5.6043    -3.7197     2.5995 C.ar    
  19 C19            5.1759    -3.7791     1.2589 C.ar    
  20 N20            5.6297    -4.7109     0.4342 N.ar    
  21 C21            6.5012    -5.6222     0.8304 C.ar    
  22 C22            8.1507    -8.3509    -0.6752 C.2     
  23 C23            7.4046    -7.8994    -1.7566 C.2     
  24 N24            6.6985    -6.8600    -1.3810 N.2     
  25 C25            5.0842    -2.6698     3.5079 C.ar    
  26 C26            4.5762    -3.0159     4.7590 C.ar    
  27 C27            4.0938    -2.0343     5.6006 C.ar    
  28 C28            4.1137    -0.7090     5.2047 C.ar    
  29 C29            4.6162    -0.3596     3.9641 C.ar    
  30 C30            5.1065    -1.3321     3.1165 C.ar    
  31 C31           -0.5973     2.1316     1.2944 C.3     
  32 N32            1.3186     0.1546    -2.1367 N.3     
  33 H33            0.0329    -0.4458     0.9980 H       
  34 H34           -0.7629    -0.4476    -0.6353 H       
  35 H35            1.9766     2.2276    -0.6471 H       
  36 H36            1.9632     1.4391     0.9897 H       
  37 H37           -0.5977     3.0718    -1.1727 H       
  38 H38            3.4293    -1.0259    -2.0220 H       
  39 H39            5.0555    -2.6817    -1.2070 H       
  40 H40            3.1282    -2.6625     2.6226 H       
  41 H41            1.5173    -0.9995     1.7917 H       
  42 H42            8.3217    -6.6844     3.5641 H       
  43 H43            6.8690    -4.6421     4.0827 H       
  44 H44            8.8260    -9.1936    -0.6747 H       
  45 H45            7.4032    -8.3357    -2.7445 H       
  46 H46            4.5598    -4.0504     5.0690 H       
  47 H47            3.6997    -2.3013     6.5700 H       
  48 H48            3.7352     0.0559     5.8666 H       
  49 H49            4.6286     0.6766     3.6600 H       
  50 H50            5.5028    -1.0577     2.1500 H       
  51 H51            0.0010     1.8098     2.1469 H       
  52 H52           -0.5800     3.2195     1.2285 H       
  53 H53           -1.6249     1.7917     1.4227 H       
  54 H54            2.2430     0.2199    -2.5360 H       
  55 H55            0.8193    -0.6393    -2.5089 H       
@<TRIPOS>BOND
   1    1    2 1
   2    1    4 1
   3    1    5 1
   4    1   31 1
   5    2    3 1
   6    2   33 1
   7    2   34 1
   8    3    4 1
   9    3    6 1
  10    3   32 1
  11    4   35 1
  12    4   36 1
  13    5   37 1
  14    6    7 ar
  15    6   11 ar
  16    7    8 ar
  17    7   38 1
  18    8    9 ar
  19    8   39 1
  20    9   10 ar
  21    9   19 1
  22   10   11 ar
  23   10   40 1
  24   11   41 1
  25   12   13 1
  26   12   21 1
  27   12   24 1
  28   13   14 1
  29   13   22 2
  30   14   15 2
  31   15   16 1
  32   15   42 1
  33   16   17 ar
  34   16   21 ar
  35   17   18 ar
  36   17   43 1
  37   18   19 ar
  38   18   25 1
  39   19   20 ar
  40   20   21 ar
  41   22   23 1
  42   22   44 1
  43   23   24 2
  44   23   45 1
  45   25   26 ar
  46   25   30 ar
  47   26   27 ar
  48   26   46 1
  49   27   28 ar
  50   27   47 1
  51   28   29 ar
  52   28   48 1
  53   29   30 ar
  54   29   49 1
  55   30   50 1
  56   31   51 1
  57   31   52 1
  58   31   53 1
  59   32   54 1
  60   32   55 1

#	End of record

