#	Name: ASD03740250
#	Creating user name:	WinNT
#	Creation time:	15. 06. 2019 20:47

#	Modifying user name:	WinNT
#	Modification time:	15. 06. 2019 20:47

#	Program:	/corina/corina34_cracker 3.40 0067  02.08.2006

@<TRIPOS>MOLECULE
ASD03740250
  61   64    0    0    0
SMALL
NO_CHARGES


@<TRIPOS>ATOM
   1 N1             0.1127     4.1218     4.6997 N.am    
   2 S2            -1.2947     3.7541     3.9081 S.o2    
   3 O3            -2.0727     3.0661     4.8779 O.2     
   4 O4            -1.7275     4.9952     3.3680 O.2     
   5 C5            -0.7866     2.6253     2.5821 C.3     
   6 C6             1.1192     4.8327     4.0413 C.ar    
   7 C7             0.7884     5.9531     3.2792 C.ar    
   8 C8             1.7526     6.6689     2.6253 C.ar    
   9 C9             3.0855     6.2738     2.7209 C.ar    
  10 C10            4.1756     6.9886     2.0566 C.2     
  11 C11            5.3994     6.4019     1.9960 C.2     
  12 O12            5.6248     5.1714     2.5065 O.3     
  13 C13            4.8526     4.7672     3.5422 C.2     
  14 O14            5.3145     4.1315     4.4712 O.2     
  15 C15            3.4288     5.1333     3.4918 C.ar    
  16 C16            2.4385     4.4210     4.1561 C.ar    
  17 C17            6.5128     7.1281     1.3548 C.ar    
  18 C18            7.1847     6.5646     0.2621 C.ar    
  19 C19            8.2287     7.2547    -0.3326 C.ar    
  20 C20            8.6048     8.4935     0.1508 C.ar    
  21 C21            7.9438     9.0537     1.2308 C.ar    
  22 C22            6.8987     8.3831     1.8303 C.ar    
  23 C23            8.3639    10.4051     1.7488 C.3     
  24 C24            7.1763    11.3397     1.6374 C.2     
  25 O25            6.6460    11.5486     0.5652 O.2     
  26 N26            6.7274    11.9296     2.7528 N.2     
  27 C27            7.2724    11.7290     3.9217 C.2     
  28 C28            8.3765    10.8845     4.1445 C.2     
  29 C29            8.9512    10.2147     3.1340 C.2     
  30 C30            8.9554     6.6533    -1.5079 C.3     
  31 C31           10.1203     7.5616    -1.9064 C.3     
  32 C32            9.4929     5.2734    -1.1234 C.3     
  33 C33            7.9906     6.5143    -2.6872 C.3     
  34 O34            6.8146     5.3471    -0.2119 O.3     
  35 C35            5.6107     5.2883    -0.9794 C.3     
  36 H36            0.2366     3.8472     5.6217 H       
  37 H37           -0.3210     1.7407     3.0166 H       
  38 H38           -1.6609     2.3284     2.0029 H       
  39 H39           -0.0726     3.1286     1.9302 H       
  40 H40           -0.2445     6.2596     3.2043 H       
  41 H41            1.4830     7.5344     2.0383 H       
  42 H42            4.0105     7.9636     1.6224 H       
  43 H43            2.6921     3.5559     4.7509 H       
  44 H44            9.4192     9.0274    -0.3161 H       
  45 H45            6.3822     8.8258     2.6691 H       
  46 H46            9.1523    10.7826     1.0978 H       
  47 H47            6.8499    12.2439     4.7718 H       
  48 H48            8.7673    10.7740     5.1453 H       
  49 H49            9.7981     9.5655     3.3004 H       
  50 H50           10.8077     7.6606    -1.0662 H       
  51 H51           10.6459     7.1266    -2.7564 H       
  52 H52            9.7374     8.5447    -2.1803 H       
  53 H53            8.6630     4.6263    -0.8396 H       
  54 H54           10.0185     4.8385    -1.9735 H       
  55 H55           10.1803     5.3724    -0.2833 H       
  56 H56            7.4730     7.4603    -2.8466 H       
  57 H57            8.5497     6.2503    -3.5849 H       
  58 H58            7.2617     5.7334    -2.4703 H       
  59 H59            5.6570     6.0217    -1.7845 H       
  60 H60            5.4983     4.2903    -1.4030 H       
  61 H61            4.7586     5.5081    -0.3362 H       
@<TRIPOS>BOND
   1    1    2 am
   2    1    6 1
   3    1   36 1
   4    2    3 2
   5    2    4 2
   6    2    5 1
   7    5   37 1
   8    5   38 1
   9    5   39 1
  10    6    7 ar
  11    6   16 ar
  12    7    8 ar
  13    7   40 1
  14    8    9 ar
  15    8   41 1
  16    9   10 1
  17    9   15 ar
  18   10   11 2
  19   10   42 1
  20   11   12 1
  21   11   17 1
  22   12   13 1
  23   13   14 2
  24   13   15 1
  25   15   16 ar
  26   16   43 1
  27   17   18 ar
  28   17   22 ar
  29   18   19 ar
  30   18   34 1
  31   19   20 ar
  32   19   30 1
  33   20   21 ar
  34   20   44 1
  35   21   22 ar
  36   21   23 1
  37   22   45 1
  38   23   24 1
  39   23   29 1
  40   23   46 1
  41   24   25 2
  42   24   26 1
  43   26   27 2
  44   27   28 1
  45   27   47 1
  46   28   29 2
  47   28   48 1
  48   29   49 1
  49   30   31 1
  50   30   32 1
  51   30   33 1
  52   31   50 1
  53   31   51 1
  54   31   52 1
  55   32   53 1
  56   32   54 1
  57   32   55 1
  58   33   56 1
  59   33   57 1
  60   33   58 1
  61   34   35 1
  62   35   59 1
  63   35   60 1
  64   35   61 1

#	End of record

