#	Name: ASD02508409
#	Creating user name:	WinNT
#	Creation time:	15. 06. 2019 20:24

#	Modifying user name:	WinNT
#	Modification time:	15. 06. 2019 20:24

#	Program:	/corina/corina34_cracker 3.40 0067  02.08.2006

@<TRIPOS>MOLECULE
ASD02508409
  42   45    0    0    0
SMALL
NO_CHARGES


@<TRIPOS>ATOM
   1 N1            -0.0168     1.3291    -0.1012 N.2     
   2 C2             0.0027     0.0038     0.1060 C.2     
   3 C3             1.2875    -0.3941     0.1641 C.2     
   4 N4             2.0587     0.7262    -0.0137 N.pl3   
   5 C5             1.2078     1.7737    -0.1748 C.2     
   6 C6             3.4562     0.7804    -0.0263 C.ar    
   7 C7             4.1159     1.7276     0.7489 C.ar    
   8 N8             4.1384    -0.0735    -0.7715 N.ar    
   9 C9             5.4568    -0.0574    -0.8122 C.ar    
  10 C10            6.1773     0.8593    -0.0721 C.ar    
  11 C11            5.5001     1.7698     0.7272 C.ar    
  12 S12            1.8670    -2.0384     0.4195 S.o2    
  13 O13            1.8503    -2.6718    -0.8525 O.2     
  14 O14            3.0366    -1.9319     1.2194 O.2     
  15 N15            0.7369    -2.8183     1.3451 N.am    
  16 C16           -0.5465    -3.0473     0.8368 C.ar    
  17 C17           -0.7062    -3.5256    -0.4566 C.ar    
  18 C18           -1.9737    -3.7504    -0.9594 C.ar    
  19 C19           -3.0890    -3.4988    -0.1751 C.ar    
  20 C20           -2.9323    -3.0225     1.1215 C.ar    
  21 C21           -1.6607    -2.8018     1.6275 C.ar    
  22 Cl22           3.2169     2.8425     1.7300 Cl      
  23 O23           -4.3307    -3.7186    -0.6908 O.3     
  24 C24           -5.4094    -3.8116     0.2458 C.3     
  25 C25           -5.2784    -2.6556     1.2465 C.3     
  26 O26           -4.0151    -2.7772     1.9091 O.3     
  27 C27            7.6833     0.8670    -0.1270 C.3     
  28 F28            8.1236    -0.1412    -0.9913 F       
  29 F29            8.1266     2.1087    -0.5949 F       
  30 F30            8.1979     0.6406     1.1541 F       
  31 H31           -0.8629    -0.6337     0.2090 H       
  32 H32            1.4968     2.8015    -0.3371 H       
  33 H33            5.9796    -0.7706    -1.4322 H       
  34 H34            6.0400     2.4968     1.3157 H       
  35 H35            0.9645    -3.1164     2.2397 H       
  36 H36            0.1605    -3.7217    -1.0704 H       
  37 H37           -2.0957    -4.1227    -1.9658 H       
  38 H38           -1.5372    -2.4300     2.6339 H       
  39 H39           -6.3608    -3.7359    -0.2807 H       
  40 H40           -5.3560    -4.7633     0.7746 H       
  41 H41           -5.3256    -1.7039     0.7171 H       
  42 H42           -6.0841    -2.7099     1.9786 H       
@<TRIPOS>BOND
   1    1    2 1
   2    1    5 2
   3    2    3 2
   4    2   31 1
   5    3    4 1
   6    3   12 1
   7    4    5 1
   8    4    6 1
   9    5   32 1
  10    6    7 ar
  11    6    8 ar
  12    7   22 1
  13    7   11 ar
  14    8    9 ar
  15    9   10 ar
  16    9   33 1
  17   10   11 ar
  18   10   27 1
  19   11   34 1
  20   12   13 2
  21   12   14 2
  22   12   15 am
  23   15   16 1
  24   15   35 1
  25   16   17 ar
  26   16   21 ar
  27   17   18 ar
  28   17   36 1
  29   18   19 ar
  30   18   37 1
  31   19   20 ar
  32   19   23 1
  33   20   21 ar
  34   20   26 1
  35   21   38 1
  36   23   24 1
  37   24   25 1
  38   24   39 1
  39   24   40 1
  40   25   26 1
  41   25   41 1
  42   25   42 1
  43   27   28 1
  44   27   29 1
  45   27   30 1

#	End of record

