#	Name: ASD07930373
#	Creating user name:	WinNT
#	Creation time:	15. 06. 2019 21:12

#	Modifying user name:	WinNT
#	Modification time:	15. 06. 2019 21:12

#	Program:	/corina/corina34_cracker 3.40 0067  02.08.2006

@<TRIPOS>MOLECULE
ASD07930373
  23   23    0    0    0
SMALL
NO_CHARGES


@<TRIPOS>ATOM
   1 C1            -0.0169     1.3924     0.0097 C.ar    
   2 C2             0.0021    -0.0041     0.0020 C.ar    
   3 N3             1.1585    -0.6524    -0.0120 N.ar    
   4 C4             2.2940     0.0222    -0.0192 C.ar    
   5 C5             2.2756     1.4164    -0.0120 C.ar    
   6 N6             1.1125     2.0663     0.0025 N.ar    
   7 C7             3.5453     2.1727    -0.0196 C.2     
   8 O8             4.6054     1.5798    -0.0321 O.2     
   9 O9             3.5270     3.5197    -0.0126 O.3     
  10 O10           -1.1621    -0.6968     0.0094 O.3     
  11 C11           -1.0687    -2.1227     0.0008 C.3     
  12 C12           -2.4747    -2.7260     0.0110 C.3     
  13 C13           -2.3746    -4.2527     0.0018 C.3     
  14 H14           -0.9596     1.9193     0.0170 H       
  15 H15            3.2361    -0.5058    -0.0303 H       
  16 H16            4.3825     3.9704    -0.0180 H       
  17 H17           -0.5407    -2.4468    -0.8960 H       
  18 H18           -0.5237    -2.4564     0.8839 H       
  19 H19           -3.0026    -2.4019     0.9078 H       
  20 H20           -3.0196    -2.3923    -0.8720 H       
  21 H21           -1.8466    -4.5768    -0.8950 H       
  22 H22           -1.8296    -4.5864     0.8849 H       
  23 H23           -3.3762    -4.6825     0.0091 H       
@<TRIPOS>BOND
   1    1    2 ar
   2    1    6 ar
   3    1   14 1
   4    2    3 ar
   5    2   10 1
   6    3    4 ar
   7    4    5 ar
   8    4   15 1
   9    5    6 ar
  10    5    7 1
  11    7    8 2
  12    7    9 1
  13    9   16 1
  14   10   11 1
  15   11   12 1
  16   11   17 1
  17   11   18 1
  18   12   13 1
  19   12   19 1
  20   12   20 1
  21   13   21 1
  22   13   22 1
  23   13   23 1

#	End of record

