#	Name: ASD01940218
#	Creating user name:	WinNT
#	Creation time:	15. 06. 2019 20:12

#	Modifying user name:	WinNT
#	Modification time:	15. 06. 2019 20:12

#	Program:	/corina/corina34_cracker 3.40 0067  02.08.2006

@<TRIPOS>MOLECULE
ASD01940218
  42   44    0    0    0
SMALL
NO_CHARGES


@<TRIPOS>ATOM
   1 C1            -0.6561    -2.9524     1.5905 C.3     
   2 C2             6.0023    -0.1129     7.8020 C.ar    
   3 F3             1.7945     2.4573     3.0797 F       
   4 C4             0.8477     1.5319     3.3486 C.ar    
   5 C5             1.2004     0.1955     3.4823 C.ar    
   6 C6             0.2200    -0.7557     3.7598 C.ar    
   7 C7            -1.1027    -0.3634     3.9011 C.ar    
   8 C8            -1.4481     0.9688     3.7669 C.ar    
   9 C9            -0.4753     1.9162     3.4970 C.ar    
  10 N10            2.5385    -0.1960     3.3381 N.pl3   
  11 N11            0.5700    -2.1057     3.8952 N.am    
  12 C12            3.3944    -0.1755     4.4407 C.ar    
  13 C13            2.9042     0.1736     5.6935 C.ar    
  14 C14            3.7479     0.1945     6.7840 C.ar    
  15 C15            5.0934    -0.1353     6.6300 C.ar    
  16 C16            5.5841    -0.4859     5.3727 C.ar    
  17 C17            4.7363    -0.5104     4.2852 C.ar    
  18 Cl18           5.3458    -0.9473     2.7196 Cl      
  19 F19           -0.8174     3.2173     3.3729 F       
  20 S20           -0.4622    -3.2862     3.3630 S.o2    
  21 O21           -1.6763    -3.0282     4.0548 O.2     
  22 O22            0.2543    -4.4963     3.5670 O.2     
  23 C23            7.3479    -0.4423     7.6500 C.ar    
  24 C24            8.1890    -0.4198     8.7440 C.ar    
  25 C25            7.6987    -0.0711     9.9895 C.ar    
  26 C26            6.3640     0.2564    10.1464 C.ar    
  27 C27            5.5151     0.2433     9.0583 C.ar    
  28 H28            0.3161    -3.0111     1.1012 H       
  29 H29           -1.3281    -3.6908     1.1531 H       
  30 H30           -1.0729    -1.9548     1.4522 H       
  31 H31           -1.8637    -1.0991     4.1157 H       
  32 H32           -2.4789     1.2716     3.8771 H       
  33 H33            2.8698    -0.4811     2.4722 H       
  34 H34            1.4170    -2.3488     4.3008 H       
  35 H35            1.8617     0.4292     5.8130 H       
  36 H36            3.3664     0.4666     7.7571 H       
  37 H37            6.6263    -0.7418     5.2514 H       
  38 H38            7.7317    -0.7151     6.6780 H       
  39 H39            9.2319    -0.6753     8.6274 H       
  40 H40            8.3605    -0.0548    10.8429 H       
  41 H41            5.9865     0.5275    11.1212 H       
  42 H42            4.4732     0.4994     9.1818 H       
@<TRIPOS>BOND
   1    1   20 1
   2    1   28 1
   3    1   29 1
   4    1   30 1
   5    2   23 ar
   6    2   15 1
   7    2   27 ar
   8    3    4 1
   9    4    5 ar
  10    4    9 ar
  11    5    6 ar
  12    5   10 1
  13    6    7 ar
  14    6   11 1
  15    7    8 ar
  16    7   31 1
  17    8    9 ar
  18    8   32 1
  19    9   19 1
  20   10   12 1
  21   10   33 1
  22   11   20 am
  23   11   34 1
  24   12   13 ar
  25   12   17 ar
  26   13   14 ar
  27   13   35 1
  28   14   15 ar
  29   14   36 1
  30   15   16 ar
  31   16   17 ar
  32   16   37 1
  33   17   18 1
  34   20   21 2
  35   20   22 2
  36   23   24 ar
  37   23   38 1
  38   24   25 ar
  39   24   39 1
  40   25   26 ar
  41   25   40 1
  42   26   27 ar
  43   26   41 1
  44   27   42 1

#	End of record

