#	Name: ASD02508136
#	Creating user name:	WinNT
#	Creation time:	15. 06. 2019 20:23

#	Modifying user name:	WinNT
#	Modification time:	15. 06. 2019 20:23

#	Program:	/corina/corina34_cracker 3.40 0067  02.08.2006

@<TRIPOS>MOLECULE
ASD02508136
  33   35    0    0    0
SMALL
NO_CHARGES


@<TRIPOS>ATOM
   1 C1             0.4134     1.8150    -0.1979 C.ar    
   2 C2             0.2694     0.4454    -0.0413 C.ar    
   3 C3             1.6856     2.3748    -0.3124 C.ar    
   4 C4             2.8036     1.5566    -0.2686 C.ar    
   5 C5             2.6536     0.1925    -0.1120 C.ar    
   6 C6             1.3898    -0.3631     0.0009 C.ar    
   7 N7            -0.4951     2.8698    -0.2817 N.am    
   8 C8             0.2150     4.0052    -0.4333 C.2     
   9 O9             1.5251     3.7137    -0.4534 O.3     
  10 S10            4.0762    -0.8456    -0.0571 S.o2    
  11 N11            4.1127    -1.5484     1.4419 N.am    
  12 C12            4.3509    -0.7651     2.5757 C.ar    
  13 O13           -0.2580     5.1203    -0.5400 O.2     
  14 C14           -1.9548     2.7630    -0.2174 C.3     
  15 O15            3.8433    -1.8950    -0.9866 O.2     
  16 O16            5.2044     0.0157    -0.1241 O.2     
  17 C17            5.0885    -1.2804     3.6368 C.ar    
  18 C18            3.8568     0.5301     2.6427 C.ar    
  19 C19            4.0937     1.3017     3.7644 C.ar    
  20 C20            4.8224     0.7859     4.8197 C.ar    
  21 C21            5.3215    -0.5027     4.7556 C.ar    
  22 Cl22           1.2127    -2.0788     0.1977 Cl      
  23 F23            5.5759    -2.5388     3.5740 F       
  24 H24           -0.7154     0.0111     0.0478 H       
  25 H25            3.7909     1.9851    -0.3572 H       
  26 H26            3.9689    -2.5033     1.5336 H       
  27 H27           -2.2802     2.8492     0.8193 H       
  28 H28           -2.4039     3.5624    -0.8068 H       
  29 H29           -2.2665     1.7979    -0.6170 H       
  30 H30            3.2879     0.9348     1.8187 H       
  31 H31            3.7092     2.3096     3.8165 H       
  32 H32            5.0060     1.3918     5.6947 H       
  33 H33            5.8901    -0.9028     5.5820 H       
@<TRIPOS>BOND
   1    1    2 ar
   2    1    3 ar
   3    1    7 1
   4    2    6 ar
   5    2   24 1
   6    3    4 ar
   7    3    9 1
   8    4    5 ar
   9    4   25 1
  10    5    6 ar
  11    5   10 1
  12    6   22 1
  13    7    8 am
  14    7   14 1
  15    8    9 1
  16    8   13 2
  17   10   11 am
  18   10   15 2
  19   10   16 2
  20   11   12 1
  21   11   26 1
  22   12   17 ar
  23   12   18 ar
  24   14   27 1
  25   14   28 1
  26   14   29 1
  27   17   23 1
  28   17   21 ar
  29   18   19 ar
  30   18   30 1
  31   19   20 ar
  32   19   31 1
  33   20   21 ar
  34   20   32 1
  35   21   33 1

#	End of record

