#	Name: ASD03320125
#	Creating user name:	WinNT
#	Creation time:	15. 06. 2019 20:36

#	Modifying user name:	WinNT
#	Modification time:	15. 06. 2019 20:36

#	Program:	/corina/corina34_cracker 3.40 0067  02.08.2006

@<TRIPOS>MOLECULE
ASD03320125
  42   44    0    0    0
SMALL
NO_CHARGES


@<TRIPOS>ATOM
   1 C1            -0.0181     1.4706     0.0147 C.2     
   2 C2             0.0015    -0.0045     0.0117 C.ar    
   3 C3             1.2205    -0.7002     0.0011 C.ar    
   4 C4             1.1911    -2.0690    -0.0014 C.ar    
   5 C5            -0.0388    -2.7267     0.0065 C.ar    
   6 N6            -1.1758    -2.0449     0.0164 N.ar    
   7 C7            -1.1918    -0.7281     0.0250 C.ar    
   8 O8             1.0269     2.0926     0.0081 O.2     
   9 N9            -1.1941     2.1289     0.0193 N.am    
  10 N10           -0.0728    -4.1114     0.0035 N.3     
  11 C11           -1.4618    -4.6058     0.0131 C.3     
  12 C12           -1.6310    -5.5177    -1.2203 C.3     
  13 C13           -0.1742    -5.9418    -1.5438 C.3     
  14 C14            0.6125    -4.6556    -1.1881 C.3     
  15 O15           -2.4299    -6.6583    -0.8996 O.3     
  16 C16           -1.2149     3.5250     0.1327 C.ar    
  17 C17           -2.1836     4.2615    -0.5366 C.ar    
  18 C18           -2.2041     5.6373    -0.4254 C.ar    
  19 C19           -1.2557     6.2851     0.3566 C.ar    
  20 C20           -0.2869     5.5478     1.0264 C.ar    
  21 C21           -0.2703     4.1717     0.9189 C.ar    
  22 S22           -1.2811     8.0412     0.4983 S.3     
  23 C23            0.1210     8.3822     1.5977 C.3     
  24 F24           -0.0816     7.7408     2.8244 F       
  25 F25            1.2992     7.9070     1.0119 F       
  26 Cl26           0.2570    10.1602     1.8645 Cl      
  27 Br27           2.8026    -3.0584    -0.0161 Br      
  28 H28            2.1602    -0.1679    -0.0052 H       
  29 H29           -2.1360    -0.2040     0.0381 H       
  30 H30           -2.0262     1.6360    -0.0560 H       
  31 H31           -1.6463    -5.1757     0.9237 H       
  32 H32           -2.1546    -3.7665    -0.0485 H       
  33 H33           -2.0649    -4.9636    -2.0527 H       
  34 H34            0.1380    -6.7766    -0.9163 H       
  35 H35           -0.0643    -6.1871    -2.6002 H       
  36 H36            0.5661    -3.9426    -2.0112 H       
  37 H37            1.6488    -4.8976    -0.9524 H       
  38 H38           -2.5666    -7.2638    -1.6411 H       
  39 H39           -2.9207     3.7579    -1.1443 H       
  40 H40           -2.9570     6.2100    -0.9464 H       
  41 H41            0.4507     6.0511     1.6340 H       
  42 H42            0.4800     3.5983     1.4430 H       
@<TRIPOS>BOND
   1    1    2 1
   2    1    8 2
   3    1    9 am
   4    2    3 ar
   5    2    7 ar
   6    3    4 ar
   7    3   28 1
   8    4    5 ar
   9    4   27 1
  10    5    6 ar
  11    5   10 1
  12    6    7 ar
  13    7   29 1
  14    9   16 1
  15    9   30 1
  16   10   11 1
  17   10   14 1
  18   11   12 1
  19   11   31 1
  20   11   32 1
  21   12   13 1
  22   12   15 1
  23   12   33 1
  24   13   14 1
  25   13   34 1
  26   13   35 1
  27   14   36 1
  28   14   37 1
  29   15   38 1
  30   16   17 ar
  31   16   21 ar
  32   17   18 ar
  33   17   39 1
  34   18   19 ar
  35   18   40 1
  36   19   20 ar
  37   19   22 1
  38   20   21 ar
  39   20   41 1
  40   21   42 1
  41   22   23 1
  42   23   24 1
  43   23   25 1
  44   23   26 1

#	End of record

