#	Name: ASD02038809
#	Creating user name:	WinNT
#	Creation time:	15. 06. 2019 20:17

#	Modifying user name:	WinNT
#	Modification time:	15. 06. 2019 20:17

#	Program:	/corina/corina34_cracker 3.40 0067  02.08.2006

@<TRIPOS>MOLECULE
ASD02038809
  46   48    0    0    0
SMALL
NO_CHARGES


@<TRIPOS>ATOM
   1 C1            -1.2821    -0.8492     0.4643 C.2     
   2 C2            -0.0597    -0.0334     0.3009 C.2     
   3 N3             1.1373    -0.6351     0.1535 N.am    
   4 C4             1.2411    -2.0932     0.2507 C.3     
   5 C5             1.2131    -2.6920    -1.1320 C.ar    
   6 C6             2.3346     0.1690    -0.1038 C.3     
   7 O7            -0.1343     1.1798     0.2995 O.2     
   8 N8            -1.3389    -2.1931     0.4946 N.2     
   9 C9            -2.5947    -2.5254     0.6541 C.2     
  10 N10           -3.3116    -1.3884     0.7220 N.pl3   
  11 N11           -2.5053    -0.3894     0.6112 N.2     
  12 C12            2.3966    -3.0143    -1.7686 C.ar    
  13 C13            2.1238     1.0130    -1.3645 C.3     
  14 C14            3.3474     1.9073    -1.5811 C.3     
  15 O15            3.5474     2.7262    -0.4271 O.3     
  16 C16            3.7965     1.9920     0.7733 C.3     
  17 C17            2.5909     1.1012     1.0844 C.3     
  18 C18            0.0035    -2.9234    -1.7597 C.ar    
  19 C19           -0.0260    -3.4727    -3.0285 C.ar    
  20 C20            1.1548    -3.7922    -3.6718 C.ar    
  21 C21            2.3707    -3.5653    -3.0408 C.ar    
  22 C22           -4.7633    -1.3012     0.8981 C.3     
  23 F23            4.7560    -4.3498    -1.7693 F       
  24 F24            4.8324    -2.2520    -2.6709 F       
  25 Cl25           1.1176    -4.4829    -5.2640 Cl      
  26 F26            5.8384    -3.9964    -3.7499 F       
  27 O27            3.5337    -3.8785    -3.6709 O.3     
  28 C28            4.7465    -3.6178    -2.9615 C.3     
  29 H29            2.1767    -2.3588     0.7428 H       
  30 H30            0.4030    -2.4792     0.8309 H       
  31 H31            3.1923    -0.4888    -0.2445 H       
  32 H32           -2.9851    -3.5303     0.7191 H       
  33 H33            3.3411    -2.8369    -1.2756 H       
  34 H34            1.9956     0.3565    -2.2252 H       
  35 H35            1.2360     1.6336    -1.2432 H       
  36 H36            4.2280     1.2855    -1.7426 H       
  37 H37            3.1847     2.5411    -2.4528 H       
  38 H38            4.6829     1.3714     0.6425 H       
  39 H39            3.9574     2.6868     1.5976 H       
  40 H40            1.7125     1.7235     1.2552 H       
  41 H41            2.7968     0.5077     1.9752 H       
  42 H42           -0.9202    -2.6750    -1.2582 H       
  43 H43           -0.9724    -3.6526    -3.5168 H       
  44 H44           -4.9986    -1.2618     1.9617 H       
  45 H45           -5.1350    -0.4002     0.4101 H       
  46 H46           -5.2365    -2.1767     0.4535 H       
@<TRIPOS>BOND
   1    1    2 1
   2    1    8 1
   3    1   11 2
   4    2    3 am
   5    2    7 2
   6    3    4 1
   7    3    6 1
   8    4    5 1
   9    4   29 1
  10    4   30 1
  11    5   12 ar
  12    5   18 ar
  13    6   13 1
  14    6   17 1
  15    6   31 1
  16    8    9 2
  17    9   10 1
  18    9   32 1
  19   10   11 1
  20   10   22 1
  21   12   21 ar
  22   12   33 1
  23   13   14 1
  24   13   34 1
  25   13   35 1
  26   14   15 1
  27   14   36 1
  28   14   37 1
  29   15   16 1
  30   16   17 1
  31   16   38 1
  32   16   39 1
  33   17   40 1
  34   17   41 1
  35   18   19 ar
  36   18   42 1
  37   19   20 ar
  38   19   43 1
  39   20   21 ar
  40   20   25 1
  41   21   27 1
  42   22   44 1
  43   22   45 1
  44   22   46 1
  45   23   28 1
  46   24   28 1
  47   26   28 1
  48   27   28 1

#	End of record

