#	Name: ASD01913636
#	Creating user name:	WinNT
#	Creation time:	15. 06. 2019 20:01

#	Modifying user name:	WinNT
#	Modification time:	15. 06. 2019 20:01

#	Program:	/corina/corina34_cracker 3.40 0067  02.08.2006

@<TRIPOS>MOLECULE
ASD01913636
  39   41    0    0    0
SMALL
NO_CHARGES


@<TRIPOS>ATOM
   1 C1            -0.0387     1.4086    -0.0785 C.ar    
   2 C2            -0.0116     0.0450     0.1470 C.ar    
   3 C3             1.1955    -0.5989     0.3451 C.ar    
   4 C4             2.3755     0.1206     0.3172 C.ar    
   5 C5             2.3484     1.4840     0.0907 C.ar    
   6 C6             1.1413     2.1282    -0.1060 C.ar    
   7 C7             3.6348     2.2685     0.0607 C.3     
   8 O8             4.1435     2.2983    -1.2743 O.3     
   9 C9             5.3036     2.9689    -1.4757 C.ar    
  10 N10            5.9045     3.5553    -0.4519 N.ar    
  11 C11            7.0330     4.2180    -0.5965 C.ar    
  12 C12            7.6390     4.3251    -1.8488 C.ar    
  13 C13            7.0280     3.7150    -2.9546 C.ar    
  14 C14            5.8494     3.0264    -2.7546 C.ar    
  15 C15            8.9035     5.0694    -2.0079 C.2     
  16 N16            9.4816     5.6520    -0.9389 N.am    
  17 O17            9.4237     5.1570    -3.1034 O.2     
  18 C18           10.7277     6.2731    -1.0697 C.ar    
  19 C19           11.0486     6.9487    -2.2393 C.ar    
  20 C20           12.2821     7.5624    -2.3651 C.ar    
  21 C21           13.1952     7.5023    -1.3255 C.ar    
  22 C22           12.8766     6.8297    -0.1602 C.ar    
  23 C23           11.6445     6.2202    -0.0272 C.ar    
  24 F24           12.5962     8.2203    -3.5025 F       
  25 H25           -0.9814     1.9109    -0.2378 H       
  26 H26           -0.9335    -0.5171     0.1689 H       
  27 H27            1.2166    -1.6641     0.5221 H       
  28 H28            3.3185    -0.3823     0.4726 H       
  29 H29            1.1202     3.1933    -0.2833 H       
  30 H30            3.4473     3.2870     0.4009 H       
  31 H31            4.3647     1.7948     0.7172 H       
  32 H32            7.4939     4.6834     0.2623 H       
  33 H33            7.4713     3.7796    -3.9373 H       
  34 H34            5.3516     2.5441    -3.5829 H       
  35 H35            9.0334     5.6404    -0.0787 H       
  36 H36           10.3365     6.9947    -3.0500 H       
  37 H37           14.1580     7.9813    -1.4254 H       
  38 H38           13.5906     6.7845     0.6487 H       
  39 H39           11.3971     5.6952     0.8836 H       
@<TRIPOS>BOND
   1    1    2 ar
   2    1    6 ar
   3    1   25 1
   4    2    3 ar
   5    2   26 1
   6    3    4 ar
   7    3   27 1
   8    4    5 ar
   9    4   28 1
  10    5    6 ar
  11    5    7 1
  12    6   29 1
  13    7    8 1
  14    7   30 1
  15    7   31 1
  16    8    9 1
  17    9   10 ar
  18    9   14 ar
  19   10   11 ar
  20   11   12 ar
  21   11   32 1
  22   12   13 ar
  23   12   15 1
  24   13   14 ar
  25   13   33 1
  26   14   34 1
  27   15   16 am
  28   15   17 2
  29   16   18 1
  30   16   35 1
  31   18   19 ar
  32   18   23 ar
  33   19   20 ar
  34   19   36 1
  35   20   21 ar
  36   20   24 1
  37   21   22 ar
  38   21   37 1
  39   22   23 ar
  40   22   38 1
  41   23   39 1

#	End of record

