#	Name: ASD07300849
#	Creating user name:	WinNT
#	Creation time:	15. 06. 2019 21:10

#	Modifying user name:	WinNT
#	Modification time:	15. 06. 2019 21:10

#	Program:	/corina/corina34_cracker 3.40 0067  02.08.2006

@<TRIPOS>MOLECULE
ASD07300849
  39   42    0    0    0
SMALL
NO_CHARGES


@<TRIPOS>ATOM
   1 N1             0.5042     1.7733    -0.5598 N.am    
   2 C2             0.3761     0.4317    -0.4016 C.2     
   3 N3             1.3945    -0.3745    -0.3284 N.2     
   4 C4             2.6578     0.0710    -0.4058 C.2     
   5 C5             2.8903     1.4458    -0.5705 C.2     
   6 C6             1.7321     2.3357    -0.6501 C.2     
   7 N7             3.8799    -0.5266    -0.3615 N.pl3   
   8 N8             4.8590     0.4657    -0.4971 N.2     
   9 C9             4.2847     1.6309    -0.6208 C.2     
  10 O10            1.8676     3.5380    -0.7932 O.2     
  11 C11            4.1176    -1.8984    -0.2061 C.ar    
  12 C12            3.4172    -2.8255    -0.9668 C.ar    
  13 N13            3.6383    -4.1167    -0.8238 N.ar    
  14 C14            4.5238    -4.5789     0.0376 C.ar    
  15 C15            5.2600    -3.7184     0.8301 C.ar    
  16 C16            5.0637    -2.3522     0.7092 C.ar    
  17 C17           -1.0102    -0.1514    -0.3056 C.3     
  18 C18           -1.0889    -1.6267    -0.7324 C.3     
  19 C19           -2.0579    -1.8336     0.4437 C.3     
  20 C20           -1.3837    -0.6226     1.1098 C.3     
  21 C21           -1.7260    -1.8313    -2.0827 C.2     
  22 O22           -1.8598    -3.0705    -2.5808 O.3     
  23 O23           -2.1164    -0.8799    -2.7169 O.2     
  24 C24            5.8469    -1.3818     1.5554 C.3     
  25 H25           -0.2876     2.3312    -0.6125 H       
  26 H26            4.7927     2.5762    -0.7415 H       
  27 H27            2.6836    -2.4848    -1.6825 H       
  28 H28            4.6755    -5.6447     0.1252 H       
  29 H29            5.9827    -4.1063     1.5327 H       
  30 H30           -1.7677     0.4789    -0.7715 H       
  31 H31           -0.1470    -2.1640    -0.6219 H       
  32 H32           -3.1027    -1.6635     0.1837 H       
  33 H33           -1.9009    -2.7700     0.9791 H       
  34 H34           -0.5224    -0.8854     1.7240 H       
  35 H35           -2.0826     0.0400     1.6204 H       
  36 H36           -2.2746    -3.1517    -3.4505 H       
  37 H37            6.7162    -1.0331     0.9979 H       
  38 H38            5.2150    -0.5316     1.8122 H       
  39 H39            6.1758    -1.8788     2.4680 H       
@<TRIPOS>BOND
   1    1    2 1
   2    1    6 am
   3    1   25 1
   4    2    3 2
   5    2   17 1
   6    3    4 1
   7    4    5 2
   8    4    7 1
   9    5    6 1
  10    5    9 1
  11    6   10 2
  12    7    8 1
  13    7   11 1
  14    8    9 2
  15    9   26 1
  16   11   12 ar
  17   11   16 ar
  18   12   13 ar
  19   12   27 1
  20   13   14 ar
  21   14   15 ar
  22   14   28 1
  23   15   16 ar
  24   15   29 1
  25   16   24 1
  26   17   18 1
  27   17   20 1
  28   17   30 1
  29   18   19 1
  30   18   21 1
  31   18   31 1
  32   19   20 1
  33   19   32 1
  34   19   33 1
  35   20   34 1
  36   20   35 1
  37   21   22 1
  38   21   23 2
  39   22   36 1
  40   24   37 1
  41   24   38 1
  42   24   39 1

#	End of record

