#	Name: ASD01231343
#	Creating user name:	WinNT
#	Creation time:	15. 06. 2019 19:15

#	Modifying user name:	WinNT
#	Modification time:	15. 06. 2019 19:15

#	Program:	/corina/corina34_cracker 3.40 0067  02.08.2006

@<TRIPOS>MOLECULE
ASD01231343
  50   52    0    0    0
SMALL
NO_CHARGES


@<TRIPOS>ATOM
   1 C1             0.9512    -0.4933    -0.2679 C.3     
   2 C2             0.8369    -1.6692     0.7042 C.3     
   3 C3             1.8325    -2.7600     0.3045 C.3     
   4 S4             1.2060    -1.1009     2.3869 S.o2    
   5 O5             0.8956    -2.1133     3.3345 O.2     
   6 O6             2.4542    -0.4228     2.4216 O.2     
   7 N7             0.0882     0.0862     2.6766 N.am    
   8 C8            -1.3363    -0.2494     2.7424 C.3     
   9 C9            -1.7658    -0.4766     4.2073 C.3     
  10 C10           -2.2593     0.9237     4.6289 C.3     
  11 C11           -2.7038     1.5904     3.3445 C.ar    
  12 C12           -3.5079     2.6986     3.1421 C.ar    
  13 C13           -3.7826     3.1343     1.8553 C.ar    
  14 C14           -3.2492     2.4561     0.7688 C.ar    
  15 C15           -2.4478     1.3514     0.9738 C.ar    
  16 C16           -2.1734     0.9162     2.2602 C.ar    
  17 O17           -4.5726     4.2224     1.6584 O.3     
  18 C18           -4.8125     4.6136     0.3051 C.3     
  19 C19           -5.7023     5.8297     0.2839 C.ar    
  20 C20           -6.0736     6.3936    -0.9225 C.ar    
  21 C21           -6.8897     7.5089    -0.9420 C.ar    
  22 C22           -7.3349     8.0605     0.2451 C.ar    
  23 C23           -6.9644     7.4962     1.4512 C.ar    
  24 C24           -6.1516     6.3779     1.4705 C.ar    
  25 C25           -5.5883     5.7924    -2.2164 C.3     
  26 F26           -6.0925     6.5313    -3.2920 F       
  27 F27           -4.1899     5.8187    -2.2473 F       
  28 F28           -6.0320     4.4690    -2.3111 F       
  29 H29            1.9637    -0.0911    -0.2341 H       
  30 H30            0.7294    -0.8348    -1.2790 H       
  31 H31            0.2419     0.2838     0.0169 H       
  32 H32           -0.1756    -2.0714     0.6705 H       
  33 H33            2.8450    -2.3579     0.3382 H       
  34 H34            1.7510    -3.5978     0.9970 H       
  35 H35            1.6107    -3.1016    -0.7066 H       
  36 H36            0.3767     1.0036     2.8027 H       
  37 H37           -1.5430    -1.1378     2.1456 H       
  38 H38           -2.5738    -1.2059     4.2655 H       
  39 H39           -0.9170    -0.7878     4.8162 H       
  40 H40           -3.0979     0.8370     5.3199 H       
  41 H41           -1.4476     1.4887     5.0870 H       
  42 H42           -3.9226     3.2251     3.9890 H       
  43 H43           -3.4604     2.7923    -0.2356 H       
  44 H44           -2.0329     0.8237     0.1278 H       
  45 H45           -3.8644     4.8486    -0.1787 H       
  46 H46           -5.3000     3.7974    -0.2281 H       
  47 H47           -7.1792     7.9498    -1.8844 H       
  48 H48           -7.9720     8.9325     0.2299 H       
  49 H49           -7.3119     7.9273     2.3784 H       
  50 H50           -5.8651     5.9348     2.4128 H       
@<TRIPOS>BOND
   1    1    2 1
   2    1   29 1
   3    1   30 1
   4    1   31 1
   5    2    3 1
   6    2    4 1
   7    2   32 1
   8    3   33 1
   9    3   34 1
  10    3   35 1
  11    4    5 2
  12    4    6 2
  13    4    7 am
  14    7    8 1
  15    7   36 1
  16    8    9 1
  17    8   16 1
  18    8   37 1
  19    9   10 1
  20    9   38 1
  21    9   39 1
  22   10   11 1
  23   10   40 1
  24   10   41 1
  25   11   12 ar
  26   11   16 ar
  27   12   13 ar
  28   12   42 1
  29   13   14 ar
  30   13   17 1
  31   14   15 ar
  32   14   43 1
  33   15   16 ar
  34   15   44 1
  35   17   18 1
  36   18   19 1
  37   18   45 1
  38   18   46 1
  39   19   20 ar
  40   19   24 ar
  41   20   21 ar
  42   20   25 1
  43   21   22 ar
  44   21   47 1
  45   22   23 ar
  46   22   48 1
  47   23   24 ar
  48   23   49 1
  49   24   50 1
  50   25   26 1
  51   25   27 1
  52   25   28 1

#	End of record

