#	Name: ASD00071117
#	Creating user name:	WinNT
#	Creation time:	15. 06. 2019 18:30

#	Modifying user name:	WinNT
#	Modification time:	15. 06. 2019 18:30

#	Program:	/corina/corina34_cracker 3.40 0067  02.08.2006

@<TRIPOS>MOLECULE
ASD00071117
  53   56    0    0    0
SMALL
NO_CHARGES


@<TRIPOS>ATOM
   1 N1            -0.3631     1.1310     0.3476 N.2     
   2 C2            -0.1930    -0.1660     0.2635 C.2     
   3 N3             1.0693    -0.7069     0.3404 N.pl3   
   4 C4             2.2046     0.0759    -0.1713 C.3     
   5 C5             1.9992     1.5150     0.2363 C.ar    
   6 C6             3.0744     2.3642     0.3752 C.ar    
   7 C7             2.8703     3.6845     0.7380 C.ar    
   8 C8             1.5885     4.1558     0.9616 C.ar    
   9 C9             0.5045     3.3129     0.8302 C.ar    
  10 C10            0.7028     1.9787     0.4688 C.ar    
  11 N11           -1.2793    -0.9880     0.0985 N.pl3   
  12 C12           -2.6313    -0.4238     0.0977 C.3     
  13 C13           -3.6265    -1.5050    -0.2366 C.ar    
  14 C14           -4.2627    -2.1871     0.7835 C.ar    
  15 C15           -5.1768    -3.1795     0.4651 C.ar    
  16 C16           -5.4179    -3.4499    -0.8734 C.ar    
  17 C17           -4.7439    -2.7265    -1.8386 C.ar    
  18 N18           -3.8843    -1.7856    -1.4989 N.ar    
  19 C19            1.2789    -2.0356     0.9207 C.3     
  20 C20            1.6039    -1.8983     2.3858 C.ar    
  21 C21            0.5824    -1.8456     3.3217 C.ar    
  22 C22            0.8843    -1.7191     4.6702 C.ar    
  23 C23            2.2016    -1.6458     5.0806 C.ar    
  24 C24            3.2215    -1.6981     4.1498 C.ar    
  25 C25            2.9250    -1.8303     2.8006 C.ar    
  26 O26            3.9286    -1.8873     1.8861 O.3     
  27 C27            5.2599    -1.7022     2.3715 C.3     
  28 O28           -0.7135    -1.9173     2.9187 O.3     
  29 C29           -1.7139    -1.8568     3.9372 C.3     
  30 H30            3.1340    -0.2995     0.2570 H       
  31 H31            2.2428     0.0025    -1.2582 H       
  32 H32            4.0763     2.0002     0.2017 H       
  33 H33            3.7145     4.3491     0.8474 H       
  34 H34            1.4363     5.1880     1.2404 H       
  35 H35           -0.4945     3.6837     1.0063 H       
  36 H36           -1.1520    -1.9425    -0.0176 H       
  37 H37           -2.8554    -0.0159     1.0833 H       
  38 H38           -2.6934     0.3700    -0.6467 H       
  39 H39           -4.0501    -1.9501     1.8155 H       
  40 H40           -5.6887    -3.7291     1.2412 H       
  41 H41           -6.1234    -4.2166    -1.1579 H       
  42 H42           -4.9260    -2.9310    -2.8833 H       
  43 H43            0.3729    -2.6302     0.8037 H       
  44 H44            2.1057    -2.5289     0.4098 H       
  45 H45            0.0888    -1.6777     5.3996 H       
  46 H46            2.4346    -1.5470     6.1305 H       
  47 H47            4.2504    -1.6405     4.4730 H       
  48 H48            5.5183    -2.5201     3.0441 H       
  49 H49            5.9544    -1.6893     1.5315 H       
  50 H50            5.3223    -0.7561     2.9092 H       
  51 H51           -1.5767    -2.6862     4.6310 H       
  52 H52           -1.6267    -0.9136     4.4766 H       
  53 H53           -2.7015    -1.9244     3.4809 H       
@<TRIPOS>BOND
   1    1    2 2
   2    1   10 1
   3    2    3 1
   4    2   11 1
   5    3    4 1
   6    3   19 1
   7    4    5 1
   8    4   30 1
   9    4   31 1
  10    5    6 ar
  11    5   10 ar
  12    6    7 ar
  13    6   32 1
  14    7    8 ar
  15    7   33 1
  16    8    9 ar
  17    8   34 1
  18    9   10 ar
  19    9   35 1
  20   11   12 1
  21   11   36 1
  22   12   13 1
  23   12   37 1
  24   12   38 1
  25   13   14 ar
  26   13   18 ar
  27   14   15 ar
  28   14   39 1
  29   15   16 ar
  30   15   40 1
  31   16   17 ar
  32   16   41 1
  33   17   18 ar
  34   17   42 1
  35   19   20 1
  36   19   43 1
  37   19   44 1
  38   20   21 ar
  39   20   25 ar
  40   21   22 ar
  41   21   28 1
  42   22   23 ar
  43   22   45 1
  44   23   24 ar
  45   23   46 1
  46   24   25 ar
  47   24   47 1
  48   25   26 1
  49   26   27 1
  50   27   48 1
  51   27   49 1
  52   27   50 1
  53   28   29 1
  54   29   51 1
  55   29   52 1
  56   29   53 1

#	End of record

