#	Name: ASD01230245
#	Creating user name:	WinNT
#	Creation time:	15. 06. 2019 19:12

#	Modifying user name:	WinNT
#	Modification time:	15. 06. 2019 19:12

#	Program:	/corina/corina34_cracker 3.40 0067  02.08.2006

@<TRIPOS>MOLECULE
ASD01230245
  47   50    0    0    0
SMALL
NO_CHARGES


@<TRIPOS>ATOM
   1 S1             0.9599     0.9531     0.1092 S.o2    
   2 N2             0.6199    -0.6521    -0.1037 N.am    
   3 C3             1.3872    -1.4418    -0.8163 C.2     
   4 N4             2.5317    -1.0663    -1.4588 N.pl3   
   5 C5             3.0332     0.3098    -1.4998 C.3     
   6 C6             2.7574     1.0227    -0.1725 C.3     
   7 C7             0.9504    -2.8506    -0.9142 C.2     
   8 C8             1.7287    -3.7484    -1.6120 C.2     
   9 C9             2.9159    -3.2989    -2.2091 C.2     
  10 C10            3.2823    -2.0072    -2.1229 C.2     
  11 F11            3.6994    -4.1724    -2.8786 F       
  12 C12           -0.3081    -3.2914    -0.2707 C.ar    
  13 C13           -0.2724    -4.2087     0.7801 C.ar    
  14 C14           -1.4465    -4.6169     1.3768 C.ar    
  15 C15           -2.6632    -4.1168     0.9330 C.ar    
  16 C16           -2.7028    -3.2042    -0.1126 C.ar    
  17 C17           -1.5324    -2.7863    -0.7099 C.ar    
  18 O18           -3.8184    -4.5218     1.5233 O.3     
  19 C19           -3.6997    -5.3686     2.6682 C.3     
  20 C20           -4.9464    -5.2214     3.5429 C.3     
  21 C21           -4.8193    -6.1280     4.7688 C.3     
  22 C22           -4.6834    -7.5829     4.3152 C.3     
  23 C23           -3.4368    -7.7301     3.4405 C.3     
  24 C24           -3.5639    -6.8235     2.2146 C.3     
  25 O25            0.2594     1.6091    -0.9388 O.2     
  26 O26            0.6531     1.2057     1.4735 O.2     
  27 H27            4.1075     0.2957    -1.6839 H       
  28 H28            2.5378     0.8491    -2.3072 H       
  29 H29            3.0840     2.0608    -0.2336 H       
  30 H30            3.2804     0.5148     0.6378 H       
  31 H31            1.4291    -4.7825    -1.6983 H       
  32 H32            4.2032    -1.6971    -2.5942 H       
  33 H33            0.6737    -4.5987     1.1254 H       
  34 H34           -1.4196    -5.3269     2.1903 H       
  35 H35           -3.6512    -2.8176    -0.4554 H       
  36 H36           -1.5636    -2.0728    -1.5200 H       
  37 H37           -2.8178    -5.0829     3.2416 H       
  38 H38           -5.0432    -4.1849     3.8660 H       
  39 H39           -5.8283    -5.5070     2.9695 H       
  40 H40           -3.9374    -5.8423     5.3421 H       
  41 H41           -5.7074    -6.0231     5.3919 H       
  42 H42           -4.5929    -8.2288     5.1885 H       
  43 H43           -5.5653    -7.8686     3.7418 H       
  44 H44           -2.5549    -7.4444     4.0138 H       
  45 H45           -3.3400    -8.7666     3.1173 H       
  46 H46           -4.4458    -7.1091     1.6413 H       
  47 H47           -2.6757    -6.9283     1.5915 H       
@<TRIPOS>BOND
   1    1    2 am
   2    1    6 1
   3    1   25 2
   4    1   26 2
   5    2    3 2
   6    3    4 1
   7    3    7 1
   8    4    5 1
   9    4   10 1
  10    5    6 1
  11    5   27 1
  12    5   28 1
  13    6   29 1
  14    6   30 1
  15    7    8 2
  16    7   12 1
  17    8    9 1
  18    8   31 1
  19    9   10 2
  20    9   11 1
  21   10   32 1
  22   12   13 ar
  23   12   17 ar
  24   13   14 ar
  25   13   33 1
  26   14   15 ar
  27   14   34 1
  28   15   16 ar
  29   15   18 1
  30   16   17 ar
  31   16   35 1
  32   17   36 1
  33   18   19 1
  34   19   20 1
  35   19   24 1
  36   19   37 1
  37   20   21 1
  38   20   38 1
  39   20   39 1
  40   21   22 1
  41   21   40 1
  42   21   41 1
  43   22   23 1
  44   22   42 1
  45   22   43 1
  46   23   24 1
  47   23   44 1
  48   23   45 1
  49   24   46 1
  50   24   47 1

#	End of record

