#	Name: ASD01882809
#	Creating user name:	WinNT
#	Creation time:	15. 06. 2019 19:45

#	Modifying user name:	WinNT
#	Modification time:	15. 06. 2019 19:45

#	Program:	/corina/corina34_cracker 3.40 0067  02.08.2006

@<TRIPOS>MOLECULE
ASD01882809
  42   44    0    0    0
SMALL
NO_CHARGES


@<TRIPOS>ATOM
   1 N1             0.1985     1.4904     0.1792 N.pl3   
   2 O2             1.1642    -0.6865    -0.0487 O.3     
   3 C3             0.1116     0.1524    -0.1182 C.2     
   4 N4            -0.9915    -0.4199    -0.4913 N.2     
   5 C5            -0.7204    -1.8534    -0.7151 C.3     
   6 C6             0.6504    -2.0340    -0.0185 C.3     
   7 C7             1.5498    -2.9829    -0.8132 C.3     
   8 O8             2.8162    -3.0966    -0.1611 O.3     
   9 C9             3.7386    -3.9082    -0.7420 C.ar    
  10 C10            4.9893    -4.0650    -0.1626 C.ar    
  11 C11            5.9252    -4.8905    -0.7550 C.ar    
  12 C12            5.6162    -5.5603    -1.9245 C.ar    
  13 C13            4.3706    -5.4053    -2.5043 C.ar    
  14 C14            3.4291    -4.5857    -1.9124 C.ar    
  15 C15            6.6391    -6.4602    -2.5687 C.3     
  16 C16            7.9510    -5.6940    -2.7491 C.3     
  17 C17            6.8756    -7.6614    -1.6900 C.ar    
  18 C18            6.4727    -8.9152    -2.1102 C.ar    
  19 C19            6.6897   -10.0171    -1.3041 C.ar    
  20 C20            7.3100    -9.8653    -0.0782 C.ar    
  21 C21            7.7138    -8.6116     0.3416 C.ar    
  22 C22            7.5007    -7.5103    -0.4663 C.ar    
  23 H23            1.0468     1.8719     0.4544 H       
  24 H24           -0.5875     2.0546     0.1102 H       
  25 H25           -1.4824    -2.4723    -0.2414 H       
  26 H26           -0.6481    -2.0743    -1.7800 H       
  27 H27            0.5255    -2.3824     1.0067 H       
  28 H28            1.0810    -3.9653    -0.8702 H       
  29 H29            1.6933    -2.5898    -1.8197 H       
  30 H30            5.2312    -3.5418     0.7508 H       
  31 H31            6.8991    -5.0127    -0.3045 H       
  32 H32            4.1319    -5.9290    -3.4182 H       
  33 H33            2.4546    -4.4688    -2.3630 H       
  34 H34            6.2731    -6.7882    -3.5416 H       
  35 H35            8.6908    -6.3449    -3.2151 H       
  36 H36            7.7799    -4.8251    -3.3847 H       
  37 H37            8.3170    -5.3660    -1.7762 H       
  38 H38            5.9880    -9.0339    -3.0680 H       
  39 H39            6.3742   -10.9966    -1.6321 H       
  40 H40            7.4789   -10.7260     0.5519 H       
  41 H41            8.1981    -8.4929     1.2996 H       
  42 H42            7.8195    -6.5314    -0.1400 H       
@<TRIPOS>BOND
   1    1    3 1
   2    1   23 1
   3    1   24 1
   4    2    3 1
   5    2    6 1
   6    3    4 2
   7    4    5 1
   8    5    6 1
   9    5   25 1
  10    5   26 1
  11    6    7 1
  12    6   27 1
  13    7    8 1
  14    7   28 1
  15    7   29 1
  16    8    9 1
  17    9   10 ar
  18    9   14 ar
  19   10   11 ar
  20   10   30 1
  21   11   12 ar
  22   11   31 1
  23   12   13 ar
  24   12   15 1
  25   13   14 ar
  26   13   32 1
  27   14   33 1
  28   15   16 1
  29   15   17 1
  30   15   34 1
  31   16   35 1
  32   16   36 1
  33   16   37 1
  34   17   18 ar
  35   17   22 ar
  36   18   19 ar
  37   18   38 1
  38   19   20 ar
  39   19   39 1
  40   20   21 ar
  41   20   40 1
  42   21   22 ar
  43   21   41 1
  44   22   42 1

#	End of record

