#	Name: ASD03330683
#	Creating user name:	WinNT
#	Creation time:	15. 06. 2019 20:37

#	Modifying user name:	WinNT
#	Modification time:	15. 06. 2019 20:37

#	Program:	/corina/corina34_cracker 3.40 0067  02.08.2006

@<TRIPOS>MOLECULE
ASD03330683
  66   68    0    0    0
SMALL
NO_CHARGES


@<TRIPOS>ATOM
   1 C1            -0.3234     1.1702     0.8836 C.2     
   2 N2            -0.3499    -0.1627     1.1192 N.pl3   
   3 C3             0.9819     1.5588     0.9181 C.2     
   4 N4             1.7320     0.4609     1.1557 N.2     
   5 C5             0.9403    -0.5792     1.2721 C.2     
   6 C6             1.3741    -1.9705     1.5274 C.ar    
   7 C7             1.4853     2.9309     0.7293 C.2     
   8 O8             0.7062     3.8410     0.5198 O.2     
   9 C9             3.3094     4.5412     0.6011 C.3     
  10 N10            2.8090     3.1772     0.7888 N.am    
  11 C11            3.4729     4.8233    -0.8938 C.3     
  12 C12            2.1003     4.8041    -1.5695 C.3     
  13 C13            4.1168     6.1978    -1.0860 C.3     
  14 C14            4.6427     4.6862     1.2884 C.2     
  15 N15            5.1774     5.9098     1.4707 N.am    
  16 O16            5.2346     3.7017     1.6774 O.2     
  17 C17           -1.5585    -0.9871     1.2050 C.3     
  18 C18           -2.4752    -0.6605     0.0220 C.3     
  19 C19           -3.3855     0.5090     0.3832 C.3     
  20 N20           -2.7015     1.4529     1.2697 N.3     
  21 C21           -1.5233     2.0414     0.6159 C.3     
  22 C22            2.6241    -2.4064     1.0872 C.ar    
  23 C23            0.5372    -2.8503     2.2144 C.ar    
  24 C24            0.9476    -4.1465     2.4493 C.ar    
  25 C25            2.1862    -4.5742     2.0056 C.ar    
  26 C26            3.0229    -3.7051     1.3283 C.ar    
  27 C27           -3.6219     2.4985     1.7362 C.3     
  28 C28            6.5057     6.0464     2.0732 C.3     
  29 C29            7.5750     5.9018     0.9885 C.3     
  30 C30            4.3650     3.7499    -1.5208 C.3     
  31 C31            6.6287     7.4227     2.7302 C.3     
  32 H32            2.6009     5.2503     1.0293 H       
  33 H33            3.4303     2.4513     0.9559 H       
  34 H34            1.4648     5.5688    -1.1228 H       
  35 H35            2.2168     5.0051    -2.6345 H       
  36 H36            1.6415     3.8249    -1.4325 H       
  37 H37            5.0771     6.2243    -0.5710 H       
  38 H38            4.2696     6.3819    -2.1494 H       
  39 H39            3.4625     6.9663    -0.6745 H       
  40 H40            4.6826     6.7001     1.2030 H       
  41 H41           -1.2835    -2.0413     1.1723 H       
  42 H42           -2.0791    -0.7743     2.1387 H       
  43 H43           -1.8689    -0.3939    -0.8437 H       
  44 H44           -3.0833    -1.5329    -0.2171 H       
  45 H45           -3.6830     1.0261    -0.5290 H       
  46 H46           -4.2756     0.1283     0.8842 H       
  47 H47           -1.3453     3.0396     1.0158 H       
  48 H48           -1.6960     2.1036    -0.4586 H       
  49 H49            3.2782    -1.7289     0.5584 H       
  50 H50           -0.4296    -2.5174     2.5620 H       
  51 H51            0.3007    -4.8285     2.9810 H       
  52 H52            2.5031    -5.5896     2.1925 H       
  53 H53            3.9884    -4.0451     0.9841 H       
  54 H54           -4.4458     2.0398     2.2830 H       
  55 H55           -3.0882     3.1858     2.3927 H       
  56 H56           -4.0145     3.0457     0.8792 H       
  57 H57            6.6447     5.2706     2.8261 H       
  58 H58            7.4360     6.6776     0.2355 H       
  59 H59            8.5634     6.0034     1.4367 H       
  60 H60            7.4875     4.9213     0.5204 H       
  61 H61            3.9062     2.7707    -1.3838 H       
  62 H62            4.4814     3.9509    -2.5857 H       
  63 H63            5.3428     3.7636    -1.0394 H       
  64 H64            5.8669     7.5257     3.5030 H       
  65 H65            7.6170     7.5243     3.1785 H       
  66 H66            6.4897     8.1985     1.9772 H       
@<TRIPOS>BOND
   1    1    2 1
   2    1    3 2
   3    1   21 1
   4    2   17 1
   5    2    5 1
   6    3    4 1
   7    3    7 1
   8    4    5 2
   9    5    6 1
  10    6   22 ar
  11    6   23 ar
  12    7    8 2
  13    7   10 am
  14    9   10 1
  15    9   11 1
  16    9   14 1
  17    9   32 1
  18   10   33 1
  19   11   12 1
  20   11   13 1
  21   11   30 1
  22   12   34 1
  23   12   35 1
  24   12   36 1
  25   13   37 1
  26   13   38 1
  27   13   39 1
  28   14   15 am
  29   14   16 2
  30   15   28 1
  31   15   40 1
  32   17   18 1
  33   17   41 1
  34   17   42 1
  35   18   19 1
  36   18   43 1
  37   18   44 1
  38   19   20 1
  39   19   45 1
  40   19   46 1
  41   20   21 1
  42   20   27 1
  43   21   47 1
  44   21   48 1
  45   22   26 ar
  46   22   49 1
  47   23   24 ar
  48   23   50 1
  49   24   25 ar
  50   24   51 1
  51   25   26 ar
  52   25   52 1
  53   26   53 1
  54   27   54 1
  55   27   55 1
  56   27   56 1
  57   28   29 1
  58   28   31 1
  59   28   57 1
  60   29   58 1
  61   29   59 1
  62   29   60 1
  63   30   61 1
  64   30   62 1
  65   30   63 1
  66   31   64 1
  67   31   65 1
  68   31   66 1

#	End of record

