#	Name: ASD01911277
#	Creating user name:	WinNT
#	Creation time:	15. 06. 2019 19:57

#	Modifying user name:	WinNT
#	Modification time:	15. 06. 2019 19:57

#	Program:	/corina/corina34_cracker 3.40 0067  02.08.2006

@<TRIPOS>MOLECULE
ASD01911277
  41   44    0    0    0
SMALL
NO_CHARGES


@<TRIPOS>ATOM
   1 C1             0.4018     1.5231     0.6784 C.3     
   2 C2             0.2870    -0.0030     0.4797 C.3     
   3 N3             1.4441    -0.4270    -0.3221 N.am    
   4 C4             2.2529     0.7611    -0.6499 C.3     
   5 C5             1.9143     1.7894     0.4580 C.3     
   6 C6             1.7200    -1.6925    -0.6949 C.2     
   7 O7             2.6537    -1.9166    -1.4402 O.2     
   8 C8             0.8870    -2.8081    -0.1974 C.ar    
   9 C9             3.7208     0.4211    -0.6191 C.2     
  10 N10            4.6184     0.7674    -1.5078 N.2     
  11 C11            5.7852     0.2443    -1.0683 C.2     
  12 N12            5.5301    -0.3828     0.0504 N.2     
  13 O13            4.3524    -0.2857     0.3234 O.3     
  14 C14            7.1079     0.3598    -1.7318 C.ar    
  15 C15            8.2308    -0.2344    -1.1600 C.ar    
  16 C16            9.4592    -0.1246    -1.7802 C.ar    
  17 C17            9.5777     0.5737    -2.9676 C.ar    
  18 C18            8.4650     1.1674    -3.5414 C.ar    
  19 C19            7.2295     1.0578    -2.9313 C.ar    
  20 F20            8.5867     1.8493    -4.7014 F       
  21 C21           -0.2798    -2.5447     0.5215 C.ar    
  22 C22           -1.0539    -3.5895     0.9832 C.ar    
  23 C23           -0.6766    -4.8967     0.7354 C.ar    
  24 C24            0.4808    -5.1665     0.0223 C.ar    
  25 C25            1.2614    -4.1287    -0.4498 C.ar    
  26 F26            0.8437    -6.4459    -0.2158 F       
  27 H27           -0.1954     2.0545    -0.0626 H       
  28 H28            0.1040     1.8039     1.6887 H       
  29 H29            0.3023    -0.5050     1.4471 H       
  30 H30           -0.6367    -0.2396    -0.0484 H       
  31 H31            1.9737     1.1519    -1.6284 H       
  32 H32            2.0851     2.8084     0.1107 H       
  33 H33            2.4830     1.5873     1.3657 H       
  34 H34            8.1404    -0.7800    -0.2324 H       
  35 H35           10.3298    -0.5850    -1.3367 H       
  36 H36           10.5407     0.6569    -3.4493 H       
  37 H37            6.3621     1.5206    -3.3784 H       
  38 H38           -0.5762    -1.5247     0.7165 H       
  39 H39           -1.9567    -3.3858     1.5399 H       
  40 H40           -1.2860    -5.7106     1.0995 H       
  41 H41            2.1632    -4.3390    -1.0056 H       
@<TRIPOS>BOND
   1    1    2 1
   2    1    5 1
   3    1   27 1
   4    1   28 1
   5    2    3 1
   6    2   29 1
   7    2   30 1
   8    3    4 1
   9    3    6 am
  10    4    5 1
  11    4    9 1
  12    4   31 1
  13    5   32 1
  14    5   33 1
  15    6    7 2
  16    6    8 1
  17    8   21 ar
  18    8   25 ar
  19    9   10 2
  20    9   13 1
  21   10   11 1
  22   11   12 2
  23   11   14 1
  24   12   13 1
  25   14   15 ar
  26   14   19 ar
  27   15   16 ar
  28   15   34 1
  29   16   17 ar
  30   16   35 1
  31   17   18 ar
  32   17   36 1
  33   18   19 ar
  34   18   20 1
  35   19   37 1
  36   21   22 ar
  37   21   38 1
  38   22   23 ar
  39   22   39 1
  40   23   24 ar
  41   23   40 1
  42   24   25 ar
  43   24   26 1
  44   25   41 1

#	End of record

