#	Name: ASD06340058
#	Creating user name:	WinNT
#	Creation time:	15. 06. 2019 21:06

#	Modifying user name:	WinNT
#	Modification time:	15. 06. 2019 21:06

#	Program:	/corina/corina34_cracker 3.40 0067  02.08.2006

@<TRIPOS>MOLECULE
ASD06340058
  41   43    0    0    0
SMALL
NO_CHARGES


@<TRIPOS>ATOM
   1 S1            -0.0210     1.6939     0.0114 S.3     
   2 N2             0.0021    -0.0041     0.0020 N.am    
   3 C3             1.2962    -0.3594    -0.0122 C.2     
   4 N4             2.1856     0.6226    -0.0155 N.am    
   5 C5             1.6912     1.8721    -0.0040 C.2     
   6 O6             1.6365    -1.5277    -0.0214 O.2     
   7 O7             2.3224     2.9128    -0.0052 O.2     
   8 C8             3.6269     0.3610    -0.0302 C.3     
   9 C9             4.1080     0.2785    -1.4559 C.ar    
  10 C10            4.5425     1.4186    -2.1058 C.ar    
  11 C11            4.9837     1.3430    -3.4137 C.ar    
  12 C12            4.9909     0.1272    -4.0715 C.ar    
  13 C13            4.5573    -1.0130    -3.4213 C.ar    
  14 C14            4.1201    -0.9381    -2.1121 C.ar    
  15 C15            5.4710     0.0450    -5.4976 C.3     
  16 C16           -1.1568    -0.9002     0.0087 C.3     
  17 C17           -1.4921    -1.2984    -1.4056 C.ar    
  18 C18           -0.9154    -2.4249    -1.9616 C.ar    
  19 C19           -1.2229    -2.7901    -3.2589 C.ar    
  20 C20           -2.1075    -2.0290    -4.0000 C.ar    
  21 C21           -2.6849    -0.9030    -3.4436 C.ar    
  22 C22           -2.3807    -0.5402    -2.1448 C.ar    
  23 C23           -2.4420    -2.4265    -5.4146 C.3     
  24 H24            4.1482     1.1691     0.4830 H       
  25 H25            3.8302    -0.5822     0.4770 H       
  26 H26            4.5369     2.3685    -1.5919 H       
  27 H27            5.3225     2.2338    -3.9216 H       
  28 H28            4.5625    -1.9628    -3.9354 H       
  29 H29            3.7848    -1.8296    -1.6029 H       
  30 H30            6.5435    -0.1490    -5.5093 H       
  31 H31            4.9500    -0.7636    -6.0103 H       
  32 H32            5.2667     0.9879    -6.0047 H       
  33 H33           -0.9237    -1.7914     0.5914 H       
  34 H34           -2.0097    -0.3879     0.4538 H       
  35 H35           -0.2243    -3.0195    -1.3827 H       
  36 H36           -0.7718    -3.6698    -3.6936 H       
  37 H37           -3.3757    -0.3081    -4.0227 H       
  38 H38           -2.8346     0.3374    -1.7089 H       
  39 H39           -3.3037    -3.0940    -5.4103 H       
  40 H40           -2.6756    -1.5352    -5.9969 H       
  41 H41           -1.5885    -2.9380    -5.8597 H       
@<TRIPOS>BOND
   1    1    2 1
   2    1    5 1
   3    2    3 am
   4    2   16 1
   5    3    4 am
   6    3    6 2
   7    4    5 am
   8    4    8 1
   9    5    7 2
  10    8    9 1
  11    8   24 1
  12    8   25 1
  13    9   10 ar
  14    9   14 ar
  15   10   11 ar
  16   10   26 1
  17   11   12 ar
  18   11   27 1
  19   12   13 ar
  20   12   15 1
  21   13   14 ar
  22   13   28 1
  23   14   29 1
  24   15   30 1
  25   15   31 1
  26   15   32 1
  27   16   17 1
  28   16   33 1
  29   16   34 1
  30   17   18 ar
  31   17   22 ar
  32   18   19 ar
  33   18   35 1
  34   19   20 ar
  35   19   36 1
  36   20   21 ar
  37   20   23 1
  38   21   22 ar
  39   21   37 1
  40   22   38 1
  41   23   39 1
  42   23   40 1
  43   23   41 1

#	End of record

