#	Name: ASD05430570
#	Creating user name:	WinNT
#	Creation time:	15. 06. 2019 21:00

#	Modifying user name:	WinNT
#	Modification time:	15. 06. 2019 21:00

#	Program:	/corina/corina34_cracker 3.40 0067  02.08.2006

@<TRIPOS>MOLECULE
ASD05430570
  31   31    0    0    0
SMALL
NO_CHARGES


@<TRIPOS>ATOM
   1 C1            -0.0159     1.3248     0.0093 C.ar    
   2 N2             0.0021    -0.0041     0.0020 N.ar    
   3 C3             1.2006     2.0091     0.0014 C.ar    
   4 N4             2.3243     1.3175    -0.0131 N.ar    
   5 N5             2.2988     0.0308    -0.0197 N.ar    
   6 C6             1.1608    -0.6370    -0.0124 C.ar    
   7 C7             1.2302     3.5158     0.0087 C.3     
   8 C8             1.1839    -2.1438    -0.0208 C.3     
   9 C9             1.9009    -2.6360    -1.2796 C.3     
  10 C10            1.9248    -2.6494     1.2188 C.3     
  11 C11            1.9731     4.0052     1.2535 C.3     
  12 C12            1.9497     4.0178    -1.2448 C.3     
  13 O13           -1.1904     2.0010     0.0186 O.3     
  14 C14           -2.3879     1.2213     0.0200 C.3     
  15 H15            0.2100     3.8992     0.0202 H       
  16 H16            0.1620    -2.5229    -0.0130 H       
  17 H17            1.9176    -3.7258    -1.2856 H       
  18 H18            1.3731    -2.2758    -2.1626 H       
  19 H19            2.9228    -2.2569    -1.2873 H       
  20 H20            1.4139    -2.2988     2.1156 H       
  21 H21            1.9414    -3.7392     1.2128 H       
  22 H22            2.9467    -2.2703     1.2110 H       
  23 H23            2.9933     3.6218     1.2420 H       
  24 H24            1.9945     5.0950     1.2588 H       
  25 H25            1.4605     3.6476     2.1465 H       
  26 H26            1.4205     3.6691    -2.1317 H       
  27 H27            1.9711     5.1076    -1.2395 H       
  28 H28            2.9699     3.6344    -1.2563 H       
  29 H29           -2.4163     0.5973    -0.8732 H       
  30 H30           -2.4078     0.5877     0.9067 H       
  31 H31           -3.2531     1.8843     0.0278 H       
@<TRIPOS>BOND
   1    1    2 ar
   2    1    3 ar
   3    1   13 1
   4    2    6 ar
   5    3    4 ar
   6    3    7 1
   7    4    5 ar
   8    5    6 ar
   9    6    8 1
  10    7   11 1
  11    7   12 1
  12    7   15 1
  13    8    9 1
  14    8   10 1
  15    8   16 1
  16    9   17 1
  17    9   18 1
  18    9   19 1
  19   10   20 1
  20   10   21 1
  21   10   22 1
  22   11   23 1
  23   11   24 1
  24   11   25 1
  25   12   26 1
  26   12   27 1
  27   12   28 1
  28   13   14 1
  29   14   29 1
  30   14   30 1
  31   14   31 1

#	End of record

