#	Name: ASD01410444
#	Creating user name:	WinNT
#	Creation time:	15. 06. 2019 19:17

#	Modifying user name:	WinNT
#	Modification time:	15. 06. 2019 19:17

#	Program:	/corina/corina34_cracker 3.40 0067  02.08.2006

@<TRIPOS>MOLECULE
ASD01410444
  76   79    0    0    0
SMALL
NO_CHARGES


@<TRIPOS>ATOM
   1 C1             0.6909     3.0373    -0.0167 C.ar    
   2 C2             1.2718     3.2465    -1.2597 C.ar    
   3 C3             2.5377     2.7523    -1.5058 C.ar    
   4 N4             3.1962     2.0868    -0.5763 N.ar    
   5 C5             2.6762     1.8672     0.6202 C.ar    
   6 C6             1.4076     2.3358     0.9373 C.ar    
   7 C7             0.5289     4.0043    -2.3297 C.3     
   8 C8             0.8515     5.4956    -2.2157 C.3     
   9 N9             0.1292     6.2323    -3.2558 N.pl3   
  10 N10           -1.0498     6.7265    -3.1161 N.2     
  11 C11           -1.3942     7.3188    -4.2371 C.2     
  12 C12           -0.3135     7.1514    -5.1061 C.2     
  13 N13            0.5901     6.4776    -4.4311 N.2     
  14 C14            0.8195     2.0837     2.3017 C.3     
  15 F15           -0.4572     2.6514     2.3713 F       
  16 F16            0.7296     0.7053     2.5234 F       
  17 F17            1.6401     2.6604     3.2770 F       
  18 F18            5.6373     2.7480     1.5010 F       
  19 C19            5.7221     1.4472     1.1460 C.ar    
  20 C20            4.5825     0.6472     1.1681 C.ar    
  21 O21            3.3887     1.1779     1.5463 O.3     
  22 C22            6.9389     0.9182     0.7572 C.ar    
  23 C23            7.0325    -0.4164     0.3911 C.ar    
  24 C24            5.8880    -1.2288     0.4175 C.ar    
  25 C25            4.6608    -0.6837     0.8066 C.ar    
  26 C26            5.9782    -2.6467     0.0300 C.2     
  27 O27            7.0603    -3.1411    -0.2183 O.2     
  28 O28            4.8608    -3.3959    -0.0494 O.3     
  29 N29            8.2593    -0.9492    -0.0018 N.am    
  30 C30            9.0421    -1.5747     0.8996 C.2     
  31 C31            8.6977    -0.8294    -1.3945 C.3     
  32 C32            8.9456     0.6435    -1.7262 C.3     
  33 C33            7.6135    -1.3851    -2.3201 C.3     
  34 O34            8.6375    -1.7623     2.0275 O.2     
  35 C35           10.4201    -2.0408     0.5061 C.3     
  36 C36           11.2212    -2.3831     1.7639 C.3     
  37 C37           12.6202    -2.8564     1.3644 C.3     
  38 C38           12.5049    -4.0991     0.4794 C.3     
  39 C39           11.7037    -3.7568    -0.7784 C.3     
  40 C40           10.3047    -3.2835    -0.3789 C.3     
  41 C41           13.9039    -4.5723     0.0799 C.3     
  42 O42           10.0227     1.1369    -0.9272 O.3     
  43 C43           10.3373     2.5112    -1.1604 C.3     
  44 H44           -0.2960     3.4171     0.2027 H       
  45 H45            2.9941     2.9124    -2.4714 H       
  46 H46            0.8338     3.6405    -3.3109 H       
  47 H47           -0.5433     3.8538    -2.2035 H       
  48 H48            0.5465     5.8593    -1.2345 H       
  49 H49            1.9236     5.6460    -2.3419 H       
  50 H50           -2.3227     7.8300    -4.4444 H       
  51 H51           -0.2350     7.5069    -6.1229 H       
  52 H52            7.8180     1.5453     0.7381 H       
  53 H53            3.7764    -1.3032     0.8287 H       
  54 H54            4.9701    -4.3213    -0.3078 H       
  55 H55            9.6196    -1.3936    -1.5351 H       
  56 H56            9.2019     0.7402    -2.7812 H       
  57 H57            8.0444     1.2198    -1.5169 H       
  58 H58            6.6702    -0.8764    -2.1211 H       
  59 H59            7.9028    -1.2210    -3.3581 H       
  60 H60            7.4951    -2.4536    -2.1404 H       
  61 H61           10.9283    -1.2489    -0.0440 H       
  62 H62           11.3034    -1.4978     2.3944 H       
  63 H63           10.7130    -3.1750     2.3141 H       
  64 H64           13.1284    -2.0644     0.8143 H       
  65 H65           13.1910    -3.1002     2.2605 H       
  66 H66           11.9967    -4.8910     1.0295 H       
  67 H67           12.2119    -2.9648    -1.3285 H       
  68 H68           11.6215    -4.6421    -1.4089 H       
  69 H69            9.7965    -4.0755     0.1712 H       
  70 H70            9.7340    -3.0397    -1.2750 H       
  71 H71           14.4746    -4.8162     0.9760 H       
  72 H72           13.8217    -5.4577    -0.5506 H       
  73 H73           14.4121    -3.7804    -0.4703 H       
  74 H74           11.1645     2.8091    -0.5160 H       
  75 H75           10.6225     2.6467    -2.2037 H       
  76 H76            9.4649     3.1262    -0.9394 H       
@<TRIPOS>BOND
   1    1    2 ar
   2    1    6 ar
   3    1   44 1
   4    2    3 ar
   5    2    7 1
   6    3    4 ar
   7    3   45 1
   8    4    5 ar
   9    5    6 ar
  10    5   21 1
  11    6   14 1
  12    7    8 1
  13    7   46 1
  14    7   47 1
  15    8    9 1
  16    8   48 1
  17    8   49 1
  18    9   10 1
  19    9   13 1
  20   10   11 2
  21   11   12 1
  22   11   50 1
  23   12   13 2
  24   12   51 1
  25   14   15 1
  26   14   16 1
  27   14   17 1
  28   18   19 1
  29   19   20 ar
  30   19   22 ar
  31   20   21 1
  32   20   25 ar
  33   22   23 ar
  34   22   52 1
  35   23   24 ar
  36   23   29 1
  37   24   25 ar
  38   24   26 1
  39   25   53 1
  40   26   27 2
  41   26   28 1
  42   28   54 1
  43   29   30 am
  44   29   31 1
  45   30   34 2
  46   30   35 1
  47   31   32 1
  48   31   33 1
  49   31   55 1
  50   32   42 1
  51   32   56 1
  52   32   57 1
  53   33   58 1
  54   33   59 1
  55   33   60 1
  56   35   36 1
  57   35   40 1
  58   35   61 1
  59   36   37 1
  60   36   62 1
  61   36   63 1
  62   37   38 1
  63   37   64 1
  64   37   65 1
  65   38   39 1
  66   38   41 1
  67   38   66 1
  68   39   40 1
  69   39   67 1
  70   39   68 1
  71   40   69 1
  72   40   70 1
  73   41   71 1
  74   41   72 1
  75   41   73 1
  76   42   43 1
  77   43   74 1
  78   43   75 1
  79   43   76 1

#	End of record

