#	Name: ASD01884612
#	Creating user name:	WinNT
#	Creation time:	15. 06. 2019 19:48

#	Modifying user name:	WinNT
#	Modification time:	15. 06. 2019 19:48

#	Program:	/corina/corina34_cracker 3.40 0067  02.08.2006

@<TRIPOS>MOLECULE
ASD01884612
  42   44    0    0    0
SMALL
NO_CHARGES


@<TRIPOS>ATOM
   1 C1            -0.0164     1.3575     0.0095 C.2     
   2 C2             0.0021    -0.0041     0.0020 C.2     
   3 C3             1.2441    -0.6750    -0.0134 C.2     
   4 C4             2.4025     0.0467    -0.0206 C.2     
   5 N5             2.3701     1.4022    -0.0130 N.am    
   6 C6             1.1988     2.0651     0.0017 C.2     
   7 O7             1.1913     3.2854     0.0079 O.2     
   8 C8             3.6267     2.1552    -0.0205 C.3     
   9 C9             1.2900    -2.1582    -0.0214 C.ar    
  10 C10            4.0446     2.4211    -1.4438 C.ar    
  11 C11            3.6205     3.5699    -2.0846 C.ar    
  12 C12            4.0022     3.8158    -3.3905 C.ar    
  13 C13            4.8099     2.9115    -4.0572 C.ar    
  14 C14            5.2358     1.7589    -3.4140 C.ar    
  15 C15            4.8563     1.5183    -2.1053 C.ar    
  16 F16            5.1829     3.1508    -5.3334 F       
  17 C17            0.8131    -2.8784     1.0721 C.ar    
  18 C18            0.8577    -4.2578     1.0592 C.ar    
  19 C19            1.3746    -4.9253    -0.0365 C.ar    
  20 C20            1.8498    -4.2154    -1.1245 C.ar    
  21 C21            1.8048    -2.8360    -1.1247 C.ar    
  22 F22            6.0241     0.8743    -4.0630 F       
  23 C23            1.4207    -6.4316    -0.0448 C.3     
  24 O24            0.2092    -6.9422    -0.6048 O.3     
  25 C25            0.1501    -8.3689    -0.6593 C.3     
  26 H26           -0.9563     1.8894     0.0168 H       
  27 H27           -0.9217    -0.5636     0.0082 H       
  28 H28            3.3529    -0.4662    -0.0321 H       
  29 H29            3.4856     3.1026     0.4997 H       
  30 H30            4.4005     1.5758     0.4831 H       
  31 H31            2.9901     4.2761    -1.5648 H       
  32 H32            3.6696     4.7135    -3.8904 H       
  33 H33            5.1875     0.6213    -1.6032 H       
  34 H34            0.4096    -2.3581     1.9282 H       
  35 H35            0.4887    -4.8169     1.9063 H       
  36 H36            2.2527    -4.7417    -1.9772 H       
  37 H37            2.1757    -2.2827    -1.9748 H       
  38 H38            2.2674    -6.7659    -0.6444 H       
  39 H39            1.5315    -6.7973     0.9761 H       
  40 H40           -0.7997    -8.6768    -1.0965 H       
  41 H41            0.9704    -8.7434    -1.2716 H       
  42 H42            0.2346    -8.7748     0.3488 H       
@<TRIPOS>BOND
   1    1    2 2
   2    1    6 1
   3    1   26 1
   4    2    3 1
   5    2   27 1
   6    3    4 2
   7    3    9 1
   8    4    5 1
   9    4   28 1
  10    5    6 am
  11    5    8 1
  12    6    7 2
  13    8   10 1
  14    8   29 1
  15    8   30 1
  16    9   17 ar
  17    9   21 ar
  18   10   11 ar
  19   10   15 ar
  20   11   12 ar
  21   11   31 1
  22   12   13 ar
  23   12   32 1
  24   13   14 ar
  25   13   16 1
  26   14   15 ar
  27   14   22 1
  28   15   33 1
  29   17   18 ar
  30   17   34 1
  31   18   19 ar
  32   18   35 1
  33   19   20 ar
  34   19   23 1
  35   20   21 ar
  36   20   36 1
  37   21   37 1
  38   23   24 1
  39   23   38 1
  40   23   39 1
  41   24   25 1
  42   25   40 1
  43   25   41 1
  44   25   42 1

#	End of record

