#	Name: ASD05313132
#	Creating user name:	WinNT
#	Creation time:	15. 06. 2019 20:58

#	Modifying user name:	WinNT
#	Modification time:	15. 06. 2019 20:58

#	Program:	/corina/corina34_cracker 3.40 0067  02.08.2006

@<TRIPOS>MOLECULE
ASD05313132
  43   46    0    0    0
SMALL
NO_CHARGES


@<TRIPOS>ATOM
   1 C1            -0.0885     0.9051     1.1568 C.2     
   2 C2             0.1457    -0.5489     0.8236 C.3     
   3 N3             0.9112     1.8281     1.2544 N.pl3   
   4 N4             1.5494    -0.6684     0.3857 N.am    
   5 C5             2.5791     0.0488     1.1525 C.3     
   6 C6             2.3321     1.5583     1.0433 C.3     
   7 N7            -0.9876     2.7566     1.6511 N.2     
   8 N8            -1.2092     1.5115     1.4029 N.2     
   9 C9             0.3048     3.0040     1.5745 C.2     
  10 C10            0.9680     4.3064     1.7967 C.ar    
  11 C11            0.6299     5.0877     2.9084 C.ar    
  12 C12            1.2570     6.3067     3.1079 C.ar    
  13 C13            2.2125     6.7490     2.2124 C.ar    
  14 C14            2.5493     5.9797     1.1125 C.ar    
  15 C15            1.9378     4.7606     0.9031 C.ar    
  16 O16           -0.3093     4.6523     3.7874 O.3     
  17 C17           -0.6023     5.5026     4.8979 C.3     
  18 C18            1.8790    -1.4147    -0.6871 C.2     
  19 O19            3.0250    -1.4228    -1.0930 O.2     
  20 C20            0.8484    -2.2223    -1.3695 C.ar    
  21 C21            0.7676    -2.2230    -2.7652 C.ar    
  22 C22           -0.1976    -2.9803    -3.3968 C.ar    
  23 C23           -1.0853    -3.7387    -2.6498 C.ar    
  24 C24           -1.0094    -3.7408    -1.2652 C.ar    
  25 C25           -0.0460    -2.9930    -0.6234 C.ar    
  26 F26           -2.0284    -4.4784    -3.2732 F       
  27 Cl27           1.8787    -1.2729    -3.7015 Cl      
  28 H28           -0.0223    -1.1649     1.7070 H       
  29 H29           -0.5225    -0.8589     0.0201 H       
  30 H30            2.5301    -0.2531     2.1987 H       
  31 H31            3.5639    -0.1889     0.7503 H       
  32 H32            2.6254     1.9046     0.0522 H       
  33 H33            2.9183     2.0791     1.8004 H       
  34 H34            0.9988     6.9123     3.9640 H       
  35 H35            2.6986     7.7002     2.3717 H       
  36 H36            3.2969     6.3328     0.4177 H       
  37 H37            2.2065     4.1610     0.0460 H       
  38 H38            0.3018     5.6552     5.4872 H       
  39 H39           -0.9652     6.4637     4.5337 H       
  40 H40           -1.3672     5.0374     5.5198 H       
  41 H41           -0.2617    -2.9818    -4.4749 H       
  42 H42           -1.7044    -4.3333    -0.6885 H       
  43 H43            0.0147    -2.9996     0.4549 H       
@<TRIPOS>BOND
   1    1    2 1
   2    1    3 1
   3    1    8 2
   4    2    4 1
   5    2   28 1
   6    2   29 1
   7    3    6 1
   8    3    9 1
   9    4    5 1
  10    4   18 am
  11    5    6 1
  12    5   30 1
  13    5   31 1
  14    6   32 1
  15    6   33 1
  16    7    8 1
  17    7    9 2
  18    9   10 1
  19   10   11 ar
  20   10   15 ar
  21   11   12 ar
  22   11   16 1
  23   12   13 ar
  24   12   34 1
  25   13   14 ar
  26   13   35 1
  27   14   15 ar
  28   14   36 1
  29   15   37 1
  30   16   17 1
  31   17   38 1
  32   17   39 1
  33   17   40 1
  34   18   19 2
  35   18   20 1
  36   20   21 ar
  37   20   25 ar
  38   21   22 ar
  39   21   27 1
  40   22   23 ar
  41   22   41 1
  42   23   24 ar
  43   23   26 1
  44   24   25 ar
  45   24   42 1
  46   25   43 1

#	End of record

