#	Name: ASD01871010
#	Creating user name:	WinNT
#	Creation time:	15. 06. 2019 19:39

#	Modifying user name:	WinNT
#	Modification time:	15. 06. 2019 19:39

#	Program:	/corina/corina34_cracker 3.40 0067  02.08.2006

@<TRIPOS>MOLECULE
ASD01871010
  35   37    0    0    0
SMALL
NO_CHARGES


@<TRIPOS>ATOM
   1 C1            -0.0167     1.3797     0.0096 C.ar    
   2 C2             0.0021    -0.0041     0.0020 C.ar    
   3 C3             1.2090    -0.6849    -0.0127 C.ar    
   4 C4             2.3988     0.0157    -0.0198 C.ar    
   5 C5             2.3840     1.4092    -0.0126 C.ar    
   6 C6             1.1676     2.0886     0.0021 C.ar    
   7 C7             3.6597     2.1671    -0.0197 C.2     
   8 C8             3.7873     3.3737    -0.6914 C.2     
   9 C9             5.0157     3.9415    -0.6021 C.2     
  10 S10            5.9551     2.8690     0.3600 S.3     
  11 N11            4.7208     1.7341     0.6120 N.2     
  12 C12            2.6530     4.0028    -1.4587 C.3     
  13 N13            5.4310     5.1444    -1.1723 N.am    
  14 C14            6.6948     5.5758    -0.9898 C.2     
  15 C15            7.1436     6.8758    -1.6060 C.3     
  16 O16            7.4709     4.9178    -0.3297 O.2     
  17 C17            8.1662     6.8034    -2.7417 C.3     
  18 C18            8.5899     7.3111    -1.3620 C.3     
  19 C19            8.8612     8.8095    -1.2133 C.3     
  20 Cl20          -1.4910    -0.8898     0.0115 Cl      
  21 Cl21           1.2250    -2.4208    -0.0216 Cl      
  22 H22           -0.9598     1.9059     0.0169 H       
  23 H23            3.3392    -0.5152    -0.0305 H       
  24 H24            1.1515     3.1684     0.0074 H       
  25 H25            2.0854     4.6569    -0.7968 H       
  26 H26            3.0543     4.5849    -2.2882 H       
  27 H27            1.9989     3.2215    -1.8459 H       
  28 H28            4.8104     5.6707    -1.7002 H       
  29 H29            6.3851     7.6567    -1.6607 H       
  30 H30            8.5143     5.8155    -3.0433 H       
  31 H31            8.0807     7.5369    -3.5435 H       
  32 H32            9.2168     6.6572    -0.7558 H       
  33 H33            8.5546     9.3263    -2.1227 H       
  34 H34            8.2963     9.1987    -0.3662 H       
  35 H35            9.9259     8.9710    -1.0450 H       
@<TRIPOS>BOND
   1    1    2 ar
   2    1    6 ar
   3    1   22 1
   4    2    3 ar
   5    2   20 1
   6    3    4 ar
   7    3   21 1
   8    4    5 ar
   9    4   23 1
  10    5    6 ar
  11    5    7 1
  12    6   24 1
  13    7    8 1
  14    7   11 2
  15    8    9 2
  16    8   12 1
  17    9   10 1
  18    9   13 1
  19   10   11 1
  20   12   25 1
  21   12   26 1
  22   12   27 1
  23   13   14 am
  24   13   28 1
  25   14   16 2
  26   14   15 1
  27   15   17 1
  28   15   18 1
  29   15   29 1
  30   17   18 1
  31   17   30 1
  32   17   31 1
  33   18   19 1
  34   18   32 1
  35   19   33 1
  36   19   34 1
  37   19   35 1

#	End of record

