#	Name: ASD01883399
#	Creating user name:	WinNT
#	Creation time:	15. 06. 2019 19:46

#	Modifying user name:	WinNT
#	Modification time:	15. 06. 2019 19:46

#	Program:	/corina/corina34_cracker 3.40 0067  02.08.2006

@<TRIPOS>MOLECULE
ASD01883399
  56   59    0    0    0
SMALL
NO_CHARGES


@<TRIPOS>ATOM
   1 N1             0.0936     1.1168     0.3359 N.am    
   2 C2             0.0399    -0.1728    -0.0458 C.2     
   3 C3            -1.2102    -0.8286    -0.1423 C.2     
   4 C4            -2.3760    -0.1076     0.1665 C.2     
   5 C5            -2.2549     1.2382     0.5596 C.2     
   6 C6            -1.0341     1.8110     0.6390 C.2     
   7 O7             1.0671    -0.7751    -0.3084 O.2     
   8 C8            -1.2858    -2.2000    -0.5472 C.1     
   9 N9            -1.3457    -3.2880    -0.8684 N.1     
  10 C10            1.3946     1.7834     0.4321 C.3     
  11 N11           -3.6132    -0.7062     0.0856 N.pl3   
  12 C12            1.7330     2.4181    -0.8922 C.ar    
  13 C13           -3.9714    -1.8223     0.9740 C.3     
  14 C14           -5.3162    -1.5048     1.6365 C.3     
  15 N15           -6.3084    -1.1940     0.5988 N.3     
  16 C16           -5.9314     0.0088    -0.1557 C.3     
  17 C17           -4.6140    -0.2426    -0.8874 C.3     
  18 C18           -7.5783    -1.0599     1.1479 C.ar    
  19 C19            1.3447     3.7192    -1.1532 C.ar    
  20 C20            1.6536     4.3033    -2.3664 C.ar    
  21 C21            2.3541     3.5832    -3.3232 C.ar    
  22 C22            2.7426     2.2779    -3.0589 C.ar    
  23 C23            2.4361     1.7002    -1.8420 C.ar    
  24 C24           -8.5846    -1.9480     0.7825 C.ar    
  25 C25           -9.8437    -1.8033     1.3370 C.ar    
  26 C26          -10.0547    -0.7714     2.2417 C.ar    
  27 C27           -9.0101     0.0737     2.5592 C.ar    
  28 N28           -7.8179    -0.0912     2.0184 N.ar    
  29 C29           -8.3071    -3.0525    -0.2045 C.3     
  30 F30           -9.4428    -3.8592    -0.3330 F       
  31 F31           -7.9865    -2.4971    -1.4479 F       
  32 F32           -7.2344    -3.8264     0.2511 F       
  33 O33            2.6589     4.1555    -4.5176 O.3     
  34 C34            3.3819     3.3549    -5.4548 C.3     
  35 F35            2.6366     2.2122    -5.7647 F       
  36 F36            3.6097     4.0935    -6.6209 F       
  37 F37            4.6071     2.9752    -4.8964 F       
  38 H38           -3.1375     1.8118     0.8012 H       
  39 H39           -0.9535     2.8446     0.9418 H       
  40 H40            1.3527     2.5524     1.2034 H       
  41 H41            2.1598     1.0512     0.6901 H       
  42 H42           -4.0573    -2.7402     0.3925 H       
  43 H43           -3.2050    -1.9411     1.7399 H       
  44 H44           -5.6506    -2.3676     2.2126 H       
  45 H45           -5.2018    -0.6469     2.2990 H       
  46 H46           -6.7119     0.2437    -0.8794 H       
  47 H47           -5.8084     0.8457     0.5318 H       
  48 H48           -4.2724     0.6812    -1.3544 H       
  49 H49           -4.7585    -1.0093    -1.6486 H       
  50 H50            0.7991     4.2792    -0.4081 H       
  51 H51            1.3498     5.3195    -2.5699 H       
  52 H52            3.2879     1.7153    -3.8021 H       
  53 H53            2.7382     0.6841    -1.6357 H       
  54 H54          -10.6446    -2.4775     1.0719 H       
  55 H55          -11.0261    -0.6311     2.6922 H       
  56 H56           -9.1699     0.8779     3.2622 H       
@<TRIPOS>BOND
   1    1    2 am
   2    1   10 1
   3    1    6 1
   4    2    3 1
   5    2    7 2
   6    3    4 2
   7    3    8 1
   8    4    5 1
   9    4   11 1
  10    5    6 2
  11    5   38 1
  12    6   39 1
  13    8    9 3
  14   10   12 1
  15   10   40 1
  16   10   41 1
  17   11   13 1
  18   11   17 1
  19   12   19 ar
  20   12   23 ar
  21   13   14 1
  22   13   42 1
  23   13   43 1
  24   14   15 1
  25   14   44 1
  26   14   45 1
  27   15   16 1
  28   15   18 1
  29   16   17 1
  30   16   46 1
  31   16   47 1
  32   17   48 1
  33   17   49 1
  34   18   24 ar
  35   18   28 ar
  36   19   20 ar
  37   19   50 1
  38   20   21 ar
  39   20   51 1
  40   21   22 ar
  41   21   33 1
  42   22   23 ar
  43   22   52 1
  44   23   53 1
  45   24   25 ar
  46   24   29 1
  47   25   26 ar
  48   25   54 1
  49   26   27 ar
  50   26   55 1
  51   27   28 ar
  52   27   56 1
  53   29   30 1
  54   29   31 1
  55   29   32 1
  56   33   34 1
  57   34   35 1
  58   34   36 1
  59   34   37 1

#	End of record

