#	Name: ASD02508008
#	Creating user name:	WinNT
#	Creation time:	15. 06. 2019 20:23

#	Modifying user name:	WinNT
#	Modification time:	15. 06. 2019 20:23

#	Program:	/corina/corina34_cracker 3.40 0067  02.08.2006

@<TRIPOS>MOLECULE
ASD02508008
  51   53    0    0    0
SMALL
NO_CHARGES


@<TRIPOS>ATOM
   1 N1            -0.0181     1.4813     0.0102 N.am    
   2 C2             0.0021    -0.0041     0.0020 C.3     
   3 C3            -0.2070    -0.5047     1.3561 C.3     
   4 N4            -1.4493     0.0834     1.9197 N.am    
   5 S5             1.3824     2.3650     0.0016 S.o2    
   6 C6             1.8074     2.6524    -1.6841 C.ar    
   7 C7             1.3343     3.7796    -2.3342 C.ar    
   8 O8             1.0601     3.6331     0.5559 O.2     
   9 O9             2.3938     1.5194     0.5318 O.2     
  10 C10            2.6189     1.7538    -2.3556 C.ar    
  11 C11            2.9539     1.9785    -3.6793 C.ar    
  12 C12            2.4762     3.1046    -4.3334 C.ar    
  13 C13            1.6677     4.0067    -3.6579 C.ar    
  14 S14           -2.8738    -0.7608     1.9394 S.o2    
  15 C15           -2.9315    -1.6510     3.4589 C.ar    
  16 O16           -3.9128     0.2067     2.0015 O.2     
  17 C17           -3.4971    -1.0709     4.5770 C.ar    
  18 O18           -2.7782    -1.7335     0.9079 O.2     
  19 C19           -3.5422    -1.7736     5.7747 C.ar    
  20 C20           -3.0178    -3.0578     5.8429 C.ar    
  21 C21           -2.4534    -3.6322     4.7206 C.ar    
  22 C22           -2.4153    -2.9323     3.5288 C.ar    
  23 N23           -4.1132    -1.1896     6.9077 N.pl3   
  24 F24            3.0843     0.6573    -1.7182 F       
  25 F25            0.5464     4.6578    -1.6761 F       
  26 C26           -1.2923     2.1104     0.0197 C.3     
  27 C27           -1.3611     1.4022     2.4415 C.3     
  28 C28           -1.8028     2.5271     1.4378 C.3     
  29 O29            2.8047     3.3266    -5.6332 O.3     
  30 C30            2.2772     4.5063    -6.2433 C.3     
  31 H31           -0.7907    -0.3741    -0.6481 H       
  32 H32            0.9664    -0.3518    -0.3685 H       
  33 H33           -0.2984    -1.5905     1.3314 H       
  34 H34            0.6418    -0.2266     1.9808 H       
  35 H35            3.5872     1.2776    -4.2028 H       
  36 H36            1.2948     4.8837    -4.1661 H       
  37 H37           -3.9037    -0.0719     4.5207 H       
  38 H38           -3.0509    -3.6067     6.7725 H       
  39 H39           -2.0455    -4.6308     4.7730 H       
  40 H40           -1.9738    -3.3838     2.6527 H       
  41 H41           -4.4788    -0.2925     6.8590 H       
  42 H42           -4.1441    -1.6811     7.7434 H       
  43 H43           -1.2412     3.0026    -0.6044 H       
  44 H44           -2.0179     1.4268    -0.4210 H       
  45 H45           -1.9905     1.4648     3.3293 H       
  46 H46           -0.3294     1.5865     2.7411 H       
  47 H47           -1.3514     3.4750     1.7308 H       
  48 H48           -2.8888     2.6195     1.4287 H       
  49 H49            2.6152     4.5625    -7.2780 H       
  50 H50            1.1881     4.4724    -6.2181 H       
  51 H51            2.6261     5.3839    -5.6990 H       
@<TRIPOS>BOND
   1    1    2 1
   2    1    5 am
   3    1   26 1
   4    2    3 1
   5    2   31 1
   6    2   32 1
   7    3    4 1
   8    3   33 1
   9    3   34 1
  10    4   14 am
  11    4   27 1
  12    5    6 1
  13    5    9 2
  14    5    8 2
  15    6    7 ar
  16    6   10 ar
  17    7   25 1
  18    7   13 ar
  19   10   11 ar
  20   10   24 1
  21   11   12 ar
  22   11   35 1
  23   12   13 ar
  24   12   29 1
  25   13   36 1
  26   14   15 1
  27   14   16 2
  28   14   18 2
  29   15   17 ar
  30   15   22 ar
  31   17   19 ar
  32   17   37 1
  33   19   20 ar
  34   19   23 1
  35   20   21 ar
  36   20   38 1
  37   21   22 ar
  38   21   39 1
  39   22   40 1
  40   23   41 1
  41   23   42 1
  42   26   28 1
  43   26   43 1
  44   26   44 1
  45   27   28 1
  46   27   45 1
  47   27   46 1
  48   28   47 1
  49   28   48 1
  50   29   30 1
  51   30   49 1
  52   30   50 1
  53   30   51 1

#	End of record

