#	Name: ASD01884067
#	Creating user name:	WinNT
#	Creation time:	15. 06. 2019 19:47

#	Modifying user name:	WinNT
#	Modification time:	15. 06. 2019 19:47

#	Program:	/corina/corina34_cracker 3.40 0067  02.08.2006

@<TRIPOS>MOLECULE
ASD01884067
  52   56    0    0    0
SMALL
NO_CHARGES


@<TRIPOS>ATOM
   1 C1            -3.5618    -2.1075     7.5394 C.3     
   2 O2            -2.7843    -2.1519     6.3413 O.3     
   3 C3            -3.4320    -2.4982     5.1979 C.ar    
   4 C4            -4.7893    -2.7837     5.2278 C.ar    
   5 C5            -5.4469    -3.1357     4.0646 C.ar    
   6 C6            -4.7540    -3.2043     2.8708 C.ar    
   7 C7            -3.3986    -2.9204     2.8372 C.ar    
   8 F8            -2.7231    -2.9880     1.6692 F       
   9 C9            -2.7381    -2.5611     3.9985 C.ar    
  10 C10           -1.2651    -2.2450     3.9616 C.3     
  11 H11           -0.8766    -1.7127     4.8299 H       
  12 C12           -0.6454    -1.9233     2.6002 C.3     
  13 C13           -0.3417    -3.2591     3.2834 C.3     
  14 H14           -0.7997    -4.1548     2.8638 H       
  15 C15            1.0564    -3.4478     3.8754 C.3     
  16 O16            1.7253    -4.5078     3.1890 O.3     
  17 C17            2.9491    -4.8671     3.6534 C.2     
  18 C18            3.0827    -5.4276     4.9406 C.2     
  19 C19            4.2969    -5.7856     5.4037 C.2     
  20 N20            5.4114    -5.6113     4.6367 N.pl3   
  21 C21            6.7358    -5.8700     4.8304 C.2     
  22 C22            7.3548    -6.4736     6.0647 C.3     
  23 C23            7.3879    -7.9969     5.9259 C.3     
  24 C24            8.7599    -8.6732     5.8889 C.3     
  25 C25            7.8750    -8.8056     7.1300 C.3     
  26 N26            7.3708    -5.4993     3.7495 N.2     
  27 N27            6.5437    -5.0246     2.8857 N.2     
  28 C28            5.3157    -5.0682     3.3786 C.2     
  29 C29            4.0579    -4.6932     2.8743 C.2     
  30 C30            3.9350    -4.1018     1.4937 C.3     
  31 F31            2.5828    -3.9320     1.1777 F       
  32 F32            4.5814    -2.8616     1.4584 F       
  33 F33            4.5268    -4.9627     0.5632 F       
  34 H34           -2.9249    -1.8186     8.3755 H       
  35 H35           -4.3641    -1.3786     7.4251 H       
  36 H36           -3.9896    -3.0915     7.7316 H       
  37 H37           -5.3318    -2.7311     6.1602 H       
  38 H38           -6.5035    -3.3578     4.0885 H       
  39 H39           -5.2699    -3.4800     1.9629 H       
  40 H40           -1.3032    -1.9403     1.7312 H       
  41 H41            0.1509    -1.1796     2.5728 H       
  42 H42            1.6262    -2.5255     3.7628 H       
  43 H43            0.9725    -3.6961     4.9334 H       
  44 H44            2.2083    -5.5702     5.5583 H       
  45 H45            4.3883    -6.2139     6.3909 H       
  46 H46            8.3709    -6.0973     6.1828 H       
  47 H47            6.7626    -6.2012     6.9384 H       
  48 H48            6.5960    -8.4307     5.3154 H       
  49 H49            8.8707    -9.5521     5.2538 H       
  50 H50            9.6388    -8.0329     5.9634 H       
  51 H51            8.1717    -8.2524     8.0210 H       
  52 H52            7.4037    -9.7716     7.3114 H       
@<TRIPOS>BOND
   1    1    2 1
   2    1   34 1
   3    1   35 1
   4    1   36 1
   5    2    3 1
   6    3    9 ar
   7    3    4 ar
   8    4    5 ar
   9    4   37 1
  10    5    6 ar
  11    5   38 1
  12    6    7 ar
  13    6   39 1
  14    7    8 1
  15    7    9 ar
  16    9   10 1
  17   10   11 1
  18   10   13 1
  19   10   12 1
  20   12   13 1
  21   12   40 1
  22   12   41 1
  23   13   14 1
  24   13   15 1
  25   15   16 1
  26   15   42 1
  27   15   43 1
  28   16   17 1
  29   17   29 2
  30   17   18 1
  31   18   19 2
  32   18   44 1
  33   19   20 1
  34   19   45 1
  35   20   28 1
  36   20   21 1
  37   21   22 1
  38   21   26 2
  39   22   23 1
  40   22   46 1
  41   22   47 1
  42   23   25 1
  43   23   24 1
  44   23   48 1
  45   24   25 1
  46   24   49 1
  47   24   50 1
  48   25   51 1
  49   25   52 1
  50   26   27 1
  51   27   28 2
  52   28   29 1
  53   29   30 1
  54   30   31 1
  55   30   32 1
  56   30   33 1

#	End of record

