#	Name: ASD01940436
#	Creating user name:	WinNT
#	Creation time:	15. 06. 2019 20:12

#	Modifying user name:	WinNT
#	Modification time:	15. 06. 2019 20:12

#	Program:	/corina/corina34_cracker 3.40 0067  02.08.2006

@<TRIPOS>MOLECULE
ASD01940436
  19   19    0    0    0
SMALL
NO_CHARGES


@<TRIPOS>ATOM
   1 C1             0.0582    -1.6244    -1.6550 C.3     
   2 C2            -0.0307    -0.5220    -0.5977 C.3     
   3 C3            -1.4629    -0.4400    -0.0658 C.3     
   4 C4            -2.0716    -1.7138     0.5240 C.3     
   5 C5            -1.6632    -0.5632     1.4461 C.3     
   6 S6            -2.5705     0.6767    -0.9696 S.o2    
   7 O7            -2.2424     2.0323    -0.6976 O.2     
   8 O8            -2.7581     0.2217    -2.3027 O.2     
   9 Cl9           -4.3728     0.4153    -0.0957 Cl      
  10 O10            1.3637    -1.6226    -2.2363 O.3     
  11 H11           -0.1305    -2.5913    -1.1885 H       
  12 H12           -0.6854    -1.4441    -2.4312 H       
  13 H13            0.6492    -0.7501     0.2231 H       
  14 H14            0.2463     0.4329    -1.0442 H       
  15 H15           -3.1375    -1.8807     0.3692 H       
  16 H16           -1.4516    -2.6103     0.5331 H       
  17 H17           -0.7746    -0.7027     2.0617 H       
  18 H18           -2.4605     0.0269     1.8979 H       
  19 H19            1.4922    -2.2976    -2.9167 H       
@<TRIPOS>BOND
   1    1    2 1
   2    1   10 1
   3    1   11 1
   4    1   12 1
   5    2    3 1
   6    2   13 1
   7    2   14 1
   8    3    4 1
   9    3    5 1
  10    3    6 1
  11    4    5 1
  12    4   15 1
  13    4   16 1
  14    5   17 1
  15    5   18 1
  16    6    7 2
  17    6    8 2
  18    6    9 1
  19   10   19 1

#	End of record

