#	Name: ASD05720199
#	Creating user name:	WinNT
#	Creation time:	15. 06. 2019 21:02

#	Modifying user name:	WinNT
#	Modification time:	15. 06. 2019 21:02

#	Program:	/corina/corina34_cracker 3.40 0067  02.08.2006

@<TRIPOS>MOLECULE
ASD05720199
  39   42    0    0    0
SMALL
NO_CHARGES


@<TRIPOS>ATOM
   1 O1            -0.0161     1.3334     0.0094 O.3     
   2 C2             0.0021    -0.0041     0.0020 C.2     
   3 N3             1.2348    -0.5293    -0.0126 N.am    
   4 C4             2.2183     0.5645    -0.0161 C.3     
   5 C5             1.3508     1.8379    -0.0010 C.3     
   6 O6            -1.0069    -0.6808     0.0087 O.2     
   7 C7             2.4559     0.5142    -2.5315 C.2     
   8 C8             3.0621     0.5136    -1.2636 C.2     
   9 C9             4.4224     0.4669    -1.1741 C.2     
  10 C10            5.1854     0.4206    -2.3493 C.2     
  11 C11            4.5702     0.4225    -3.5549 C.2     
  12 N12            3.2161     0.4690    -3.6420 N.am    
  13 O13            1.2395     0.5506    -2.6260 O.2     
  14 C14            2.5748     0.4695    -4.9592 C.3     
  15 C15            2.4021     1.9111    -5.4417 C.3     
  16 C16            3.0998    -3.5861    -0.0446 C.2     
  17 N17            2.7924    -2.2814    -0.0357 N.2     
  18 C18            1.5350    -1.8858    -0.0220 C.2     
  19 C19            0.4938    -2.8374    -0.0165 C.2     
  20 C20            0.7983    -4.1544    -0.0253 C.2     
  21 N21            2.1111    -4.5364    -0.0395 N.pl3   
  22 N22            2.7293    -5.7921    -0.0510 N.2     
  23 C23            4.0323    -5.6237    -0.0626 C.2     
  24 C24            4.3115    -4.2644    -0.0648 C.2     
  25 Br25           6.0310    -3.4778    -0.0879 Br      
  26 H26            2.8457     0.5180     0.8740 H       
  27 H27            1.5314     2.4339    -0.8956 H       
  28 H28            1.5485     2.4243     0.8964 H       
  29 H29            4.9063     0.4660    -0.2085 H       
  30 H30            6.2633     0.3837    -2.2927 H       
  31 H31            5.1627     0.3867    -4.4571 H       
  32 H32            3.1973    -0.0783    -5.6666 H       
  33 H33            1.5982    -0.0093    -4.8880 H       
  34 H34            3.3787     2.3899    -5.5130 H       
  35 H35            1.9249     1.9115    -6.4218 H       
  36 H36            1.7796     2.4590    -4.7343 H       
  37 H37           -0.5374    -2.5166    -0.0049 H       
  38 H38            0.0136    -4.8964    -0.0208 H       
  39 H39            4.7671    -6.4151    -0.0732 H       
@<TRIPOS>BOND
   1    1    2 1
   2    1    5 1
   3    2    3 am
   4    2    6 2
   5    3    4 1
   6    3   18 1
   7    4    5 1
   8    4    8 1
   9    4   26 1
  10    5   27 1
  11    5   28 1
  12    7    8 1
  13    7   12 am
  14    7   13 2
  15    8    9 2
  16    9   10 1
  17    9   29 1
  18   10   11 2
  19   10   30 1
  20   11   12 1
  21   11   31 1
  22   12   14 1
  23   14   15 1
  24   14   32 1
  25   14   33 1
  26   15   34 1
  27   15   35 1
  28   15   36 1
  29   16   17 1
  30   16   21 1
  31   16   24 2
  32   17   18 2
  33   18   19 1
  34   19   20 2
  35   19   37 1
  36   20   21 1
  37   20   38 1
  38   21   22 1
  39   22   23 2
  40   23   24 1
  41   23   39 1
  42   24   25 1

#	End of record

