#	Name: ASD01028095
#	Creating user name:	WinNT
#	Creation time:	15. 06. 2019 18:56

#	Modifying user name:	WinNT
#	Modification time:	15. 06. 2019 18:56

#	Program:	/corina/corina34_cracker 3.40 0067  02.08.2006

@<TRIPOS>MOLECULE
ASD01028095
  83   89    0    0    0
SMALL
NO_CHARGES


@<TRIPOS>ATOM
   1 C1             0.4202     1.4138    -0.5863 C.3     
   2 C2             0.3751    -0.1047    -0.3979 C.3     
   3 C3            -0.8134    -0.4691     0.4917 C.3     
   4 C4             1.7103     3.4717     0.0201 C.3     
   5 C5             1.7688     1.9488    -0.1000 C.3     
   6 N6             2.8807     3.9385     0.8107 N.am    
   7 N7             2.4145     1.4131     3.6303 N.pl3   
   8 C8             3.1076     2.5789     4.0390 C.ar    
   9 C9             3.6808     3.3484     3.0329 C.ar    
  10 C10            3.5573     2.8822     1.6066 C.3     
  11 C11            3.2095     2.9638     5.3669 C.ar    
  12 C12            3.8836     4.1354     5.6862 C.ar    
  13 C13            4.4455     4.9157     4.6765 C.ar    
  14 C14            4.3370     4.5180     3.3507 C.ar    
  15 O15           -0.5577    -1.7001     1.1721 O.3     
  16 C16           -0.2111    -1.5958     2.4839 C.ar    
  17 C17            0.6177    -0.5752     2.8592 C.ar    
  18 C18            0.9855    -0.4380     4.2014 C.ar    
  19 C19            1.8568     0.6002     4.6250 C.ar    
  20 N20            2.1072     0.7239     5.9119 N.ar    
  21 O21            2.7552     2.3783     6.5079 O.3     
  22 C22            3.1952     3.1774     7.6095 C.3     
  23 O23            3.8710     4.3034     7.0386 O.3     
  24 C24           -0.6938    -2.5106     3.4284 C.ar    
  25 C25           -0.3449    -2.3951     4.7582 C.ar    
  26 C26            0.4878    -1.3451     5.1660 C.ar    
  27 N27            0.8226    -1.1443     6.4496 N.ar    
  28 C28            1.5915    -0.1349     6.7863 C.ar    
  29 O29           -1.5126    -3.5195     3.0319 O.3     
  30 C30           -1.9706    -4.4189     4.0435 C.3     
  31 C31            3.2956     5.2208     0.8051 C.2     
  32 O32            5.0998     6.0664     4.9903 O.3     
  33 C33            6.3844     5.9721     5.4231 C.ar    
  34 C34            7.0647     7.1025     5.8663 C.ar    
  35 C35            8.3726     6.9563     6.2985 C.ar    
  36 C36            8.9550     5.7025     6.2756 C.ar    
  37 N37            8.2826     4.6514     5.8496 N.ar    
  38 C38            7.0347     4.7466     5.4350 C.ar    
  39 C39           10.3777     5.5351     6.7436 C.3     
  40 O40            2.4648     6.1954     0.3893 O.3     
  41 O41            4.4194     5.4974     1.1752 O.2     
  42 C42            2.9363     7.5627     0.5173 C.3     
  43 C43            1.8361     8.5127     0.1199 C.ar    
  44 C44            0.8845     8.8949     1.0469 C.ar    
  45 C45           -0.1247     9.7664     0.6823 C.ar    
  46 C46           -0.1821    10.2560    -0.6091 C.ar    
  47 C47            0.7700     9.8745    -1.5359 C.ar    
  48 C48            1.7817     9.0065    -1.1701 C.ar    
  49 H49            0.2941     1.6527    -1.6423 H       
  50 H50           -0.3824     1.8752    -0.0111 H       
  51 H51            0.2648    -0.5885    -1.3684 H       
  52 H52            1.2988    -0.4404     0.0735 H       
  53 H53           -0.9728     0.3224     1.2241 H       
  54 H54           -1.7067    -0.5749    -0.1238 H       
  55 H55            1.7401     3.9175    -0.9741 H       
  56 H56            0.7892     3.7628     0.5249 H       
  57 H57            1.9998     1.5173     0.8740 H       
  58 H58            2.5465     1.6712    -0.8115 H       
  59 H59            2.3293     1.1848     2.6914 H       
  60 H60            2.9680     1.9658     1.5719 H       
  61 H61            4.5497     2.6956     1.1963 H       
  62 H62            4.7674     5.1253     2.5681 H       
  63 H63            0.9872     0.1221     2.1219 H       
  64 H64            2.3393     3.5115     8.1960 H       
  65 H65            3.8804     2.6071     8.2366 H       
  66 H66           -0.7121    -3.1093     5.4803 H       
  67 H67            1.8178     0.0061     7.8329 H       
  68 H68           -2.6144    -5.1745     3.5934 H       
  69 H69           -1.1148    -4.9036     4.5133 H       
  70 H70           -2.5321    -3.8644     4.7955 H       
  71 H71            6.5847     8.0700     5.8729 H       
  72 H72            8.9311     7.8118     6.6488 H       
  73 H73            6.5162     3.8630     5.0934 H       
  74 H74           10.3859     5.3218     7.8125 H       
  75 H75           10.8426     4.7095     6.2048 H       
  76 H76           10.9336     6.4529     6.5520 H       
  77 H77            3.2243     7.7524     1.5513 H       
  78 H78            3.7981     7.7122    -0.1331 H       
  79 H79            0.9294     8.5124     2.0559 H       
  80 H80           -0.8685    10.0644     1.4064 H       
  81 H81           -0.9710    10.9363    -0.8941 H       
  82 H82            0.7249    10.2568    -2.5450 H       
  83 H83            2.5256     8.7084    -1.8942 H       
@<TRIPOS>BOND
   1    1    2 1
   2    1    5 1
   3    1   49 1
   4    1   50 1
   5    2    3 1
   6    2   51 1
   7    2   52 1
   8    3   15 1
   9    3   53 1
  10    3   54 1
  11    4    5 1
  12    4    6 1
  13    4   55 1
  14    4   56 1
  15    5   57 1
  16    5   58 1
  17    6   31 am
  18    6   10 1
  19    7    8 1
  20    7   19 1
  21    7   59 1
  22    8    9 ar
  23    8   11 ar
  24    9   10 1
  25    9   14 ar
  26   10   60 1
  27   10   61 1
  28   11   12 ar
  29   11   21 1
  30   12   13 ar
  31   12   23 1
  32   13   14 ar
  33   13   32 1
  34   14   62 1
  35   15   16 1
  36   16   17 ar
  37   16   24 ar
  38   17   18 ar
  39   17   63 1
  40   18   19 ar
  41   18   26 ar
  42   19   20 ar
  43   20   28 ar
  44   21   22 1
  45   22   23 1
  46   22   64 1
  47   22   65 1
  48   24   25 ar
  49   24   29 1
  50   25   26 ar
  51   25   66 1
  52   26   27 ar
  53   27   28 ar
  54   28   67 1
  55   29   30 1
  56   30   68 1
  57   30   69 1
  58   30   70 1
  59   31   40 1
  60   31   41 2
  61   32   33 1
  62   33   34 ar
  63   33   38 ar
  64   34   35 ar
  65   34   71 1
  66   35   36 ar
  67   35   72 1
  68   36   37 ar
  69   36   39 1
  70   37   38 ar
  71   38   73 1
  72   39   74 1
  73   39   75 1
  74   39   76 1
  75   40   42 1
  76   42   43 1
  77   42   77 1
  78   42   78 1
  79   43   44 ar
  80   43   48 ar
  81   44   45 ar
  82   44   79 1
  83   45   46 ar
  84   45   80 1
  85   46   47 ar
  86   46   81 1
  87   47   48 ar
  88   47   82 1
  89   48   83 1

#	End of record

