#	Name: ASD01841020
#	Creating user name:	WinNT
#	Creation time:	15. 06. 2019 19:38

#	Modifying user name:	WinNT
#	Modification time:	15. 06. 2019 19:38

#	Program:	/corina/corina34_cracker 3.40 0067  02.08.2006

@<TRIPOS>MOLECULE
ASD01841020
  35   37    0    0    0
SMALL
NO_CHARGES


@<TRIPOS>ATOM
   1 C1            -0.0167     1.3826     0.0096 C.ar    
   2 C2             0.0021    -0.0041     0.0020 C.ar    
   3 C3             1.2035    -0.6767    -0.0130 C.ar    
   4 C4             2.4050     0.0299    -0.0202 C.ar    
   5 C5             2.4046     1.4267    -0.0127 C.ar    
   6 C6             1.1593     2.0983     0.0023 C.ar    
   7 S7             4.0771    -0.5258    -0.0395 S.3     
   8 C8             4.6443     1.1382    -0.0361 C.2     
   9 N9             3.6465     1.9517    -0.0220 N.2     
  10 O10            1.1240     3.4572     0.0094 O.3     
  11 C11           -0.1657     4.0725     0.0246 C.3     
  12 C12            1.2194    -2.1836    -0.0213 C.3     
  13 N13            5.9758     1.5199    -0.0470 N.am    
  14 C14            6.3019     2.8276    -0.0432 C.2     
  15 C15            7.7214     3.2345    -0.0548 C.ar    
  16 O16            5.4276     3.6721    -0.0301 O.2     
  17 C17            8.0623     4.5891    -0.0509 C.ar    
  18 C18            9.3888     4.9632    -0.0618 C.ar    
  19 C19           10.3840     3.9979    -0.0767 C.ar    
  20 C20           10.0513     2.6518    -0.0807 C.ar    
  21 C21            8.7281     2.2663    -0.0640 C.ar    
  22 F22           11.6827     4.3702    -0.0879 F       
  23 H23           -0.9618     1.9054     0.0169 H       
  24 H24           -0.9259    -0.5566     0.0082 H       
  25 H25           -0.7232     3.7697    -0.8618 H       
  26 H26           -0.7066     3.7607     0.9181 H       
  27 H27           -0.0510     5.1565     0.0290 H       
  28 H28            1.2134    -2.5414    -1.0509 H       
  29 H29            2.1180    -2.5402     0.4821 H       
  30 H30            0.3382    -2.5591     0.4990 H       
  31 H31            6.6734     0.8461    -0.0574 H       
  32 H32            7.2879     5.3418    -0.0396 H       
  33 H33            9.6535     6.0103    -0.0591 H       
  34 H34           10.8305     1.9040    -0.0923 H       
  35 H35            8.4700     1.2176    -0.0672 H       
@<TRIPOS>BOND
   1    1    2 ar
   2    1    6 ar
   3    1   23 1
   4    2    3 ar
   5    2   24 1
   6    3    4 ar
   7    3   12 1
   8    4    5 ar
   9    4    7 1
  10    5    6 ar
  11    5    9 1
  12    6   10 1
  13    7    8 1
  14    8    9 2
  15    8   13 1
  16   10   11 1
  17   11   25 1
  18   11   26 1
  19   11   27 1
  20   12   28 1
  21   12   29 1
  22   12   30 1
  23   13   14 am
  24   13   31 1
  25   14   15 1
  26   14   16 2
  27   15   17 ar
  28   15   21 ar
  29   17   18 ar
  30   17   32 1
  31   18   19 ar
  32   18   33 1
  33   19   20 ar
  34   19   22 1
  35   20   21 ar
  36   20   34 1
  37   21   35 1

#	End of record

