#	Name: ASD04910014
#	Creating user name:	WinNT
#	Creation time:	15. 06. 2019 20:55

#	Modifying user name:	WinNT
#	Modification time:	15. 06. 2019 20:55

#	Program:	/corina/corina34_cracker 3.40 0067  02.08.2006

@<TRIPOS>MOLECULE
ASD04910014
  61   63    0    0    0
SMALL
NO_CHARGES


@<TRIPOS>ATOM
   1 C1            -0.2690     1.4348     0.2401 C.2     
   2 C2            -0.2087    -0.0706     0.2041 C.3     
   3 C3             1.2522    -0.5211     0.1424 C.3     
   4 O4             0.7517     2.0810     0.2187 O.2     
   5 O5            -1.4569     2.0579     0.2904 O.3     
   6 C6             2.5033    -2.6100     0.0513 C.2     
   7 C7             2.5625    -4.0869     0.0159 C.ar    
   8 C8             3.7958    -4.7377    -0.0422 C.ar    
   9 C9             3.8441    -6.1161    -0.0745 C.ar    
  10 C10            2.6734    -6.8531    -0.0499 C.ar    
  11 C11            1.4475    -6.2141     0.0077 C.ar    
  12 C12            1.3855    -4.8364     0.0463 C.ar    
  13 O13            3.5302    -1.9599     0.0297 O.2     
  14 N14            1.3108    -1.9845     0.1074 N.am    
  15 C15            2.7337    -8.3584    -0.0864 C.3     
  16 C16            2.5542    -8.9105     1.3292 C.3     
  17 C17            2.7394   -10.4292     1.3116 C.3     
  18 C18            2.5600   -10.9813     2.7271 C.3     
  19 O19            1.6915    -8.8566    -0.9276 O.3     
  20 C20            1.9543    -9.9903    -1.6303 C.ar    
  21 C21            3.2166   -10.5633    -1.5754 C.ar    
  22 C22            3.4840   -11.7147    -2.2890 C.ar    
  23 C23            2.4897   -12.2990    -3.0614 C.ar    
  24 C24            1.2268   -11.7254    -3.1161 C.ar    
  25 C25            0.9586   -10.5771    -2.3977 C.ar    
  26 C26            2.0203   -14.6073    -3.7905 C.2     
  27 N27            2.5902   -15.4721    -4.5851 N.2     
  28 C28            3.6980   -14.9293    -5.1111 C.2     
  29 C29            3.8243   -13.6791    -4.6268 C.2     
  30 N30            2.7612   -13.4692    -3.7873 N.pl3   
  31 C31            4.6391   -15.6023    -6.0768 C.3     
  32 F32            4.1224   -16.8513    -6.4377 F       
  33 F33            4.7806   -14.8082    -7.2199 F       
  34 F34            5.8878   -15.7720    -5.4694 F       
  35 C35            0.7496   -14.8319    -3.0121 C.3     
  36 H36           -0.6759    -0.4745     1.1022 H       
  37 H37           -0.7386    -0.4344    -0.6762 H       
  38 H38            1.7194    -0.1171    -0.7557 H       
  39 H39            1.7820    -0.1572     1.0227 H       
  40 H40           -1.4450     3.0245     0.3120 H       
  41 H41            4.7104    -4.1636    -0.0622 H       
  42 H42            4.7977    -6.6209    -0.1195 H       
  43 H43            0.5373    -6.7952     0.0267 H       
  44 H44            0.4282    -4.3389     0.0958 H       
  45 H45            0.4914    -2.5033     0.1246 H       
  46 H46            3.7001    -8.6739    -0.4797 H       
  47 H47            3.2952    -8.4618     1.9908 H       
  48 H48            1.5536    -8.6707     1.6886 H       
  49 H49            1.9985   -10.8779     0.6499 H       
  50 H50            3.7401   -10.6690     0.9521 H       
  51 H51            2.6919   -12.0632     2.7146 H       
  52 H52            3.3010   -10.5326     3.3888 H       
  53 H53            1.5593   -10.7414     3.0866 H       
  54 H54            3.9904   -10.1084    -0.9747 H       
  55 H55            4.4668   -12.1605    -2.2464 H       
  56 H56            0.4529   -12.1797    -3.7170 H       
  57 H57           -0.0252   -10.1332    -2.4368 H       
  58 H58            4.6123   -12.9768    -4.8554 H       
  59 H59            0.9912   -15.2499    -2.0349 H       
  60 H60            0.2301   -13.8825    -2.8828 H       
  61 H61            0.1084   -15.5259    -3.5557 H       
@<TRIPOS>BOND
   1    1    2 1
   2    1    4 2
   3    1    5 1
   4    2    3 1
   5    2   36 1
   6    2   37 1
   7    3   14 1
   8    3   38 1
   9    3   39 1
  10    5   40 1
  11    6    7 1
  12    6   13 2
  13    6   14 am
  14    7    8 ar
  15    7   12 ar
  16    8    9 ar
  17    8   41 1
  18    9   10 ar
  19    9   42 1
  20   10   11 ar
  21   10   15 1
  22   11   12 ar
  23   11   43 1
  24   12   44 1
  25   14   45 1
  26   15   16 1
  27   15   19 1
  28   15   46 1
  29   16   17 1
  30   16   47 1
  31   16   48 1
  32   17   18 1
  33   17   49 1
  34   17   50 1
  35   18   51 1
  36   18   52 1
  37   18   53 1
  38   19   20 1
  39   20   21 ar
  40   20   25 ar
  41   21   22 ar
  42   21   54 1
  43   22   23 ar
  44   22   55 1
  45   23   24 ar
  46   23   30 1
  47   24   25 ar
  48   24   56 1
  49   25   57 1
  50   26   27 2
  51   26   30 1
  52   26   35 1
  53   27   28 1
  54   28   29 2
  55   28   31 1
  56   29   30 1
  57   29   58 1
  58   31   32 1
  59   31   33 1
  60   31   34 1
  61   35   59 1
  62   35   60 1
  63   35   61 1

#	End of record

