#	Name: ASD05313107
#	Creating user name:	WinNT
#	Creation time:	15. 06. 2019 20:58

#	Modifying user name:	WinNT
#	Modification time:	15. 06. 2019 20:58

#	Program:	/corina/corina34_cracker 3.40 0067  02.08.2006

@<TRIPOS>MOLECULE
ASD05313107
  39   42    0    0    0
SMALL
NO_CHARGES


@<TRIPOS>ATOM
   1 C1            -0.0901     0.9042     1.1564 C.2     
   2 C2             0.1437    -0.5497     0.8222 C.3     
   3 N3             0.9096     1.8274     1.2524 N.pl3   
   4 N4             1.5466    -0.6687     0.3816 N.am    
   5 C5             2.5777     0.0485     1.1466 C.3     
   6 C6             2.3302     1.5579     1.0384 C.3     
   7 N7            -0.9885     2.7554     1.6532 N.2     
   8 N8            -1.2104     1.5103     1.4050 N.2     
   9 C9             0.3036     3.0029     1.5741 C.2     
  10 C10            0.9671     4.3057     1.7952 C.ar    
  11 C11            0.6301     5.0853     2.9054 C.ar    
  12 C12            1.2543     6.3013     3.1062 C.ar    
  13 C13            2.2117     6.7471     2.2096 C.ar    
  14 C14            2.5483     5.9774     1.1073 C.ar    
  15 C15            1.9360     4.7590     0.8996 C.ar    
  16 F16            2.8193     7.9369     2.4102 F       
  17 F17           -0.3038     4.6509     3.7796 F       
  18 C18            1.8742    -1.4145    -0.6922 C.2     
  19 O19            3.0194    -1.4224    -1.1002 O.2     
  20 C20            0.8420    -2.2223    -1.3732 C.ar    
  21 C21            0.7589    -2.2232    -2.7684 C.ar    
  22 C22           -0.2085    -2.9805    -3.3982 C.ar    
  23 C23           -1.0944    -3.7374    -2.6503 C.ar    
  24 C24           -1.0164    -3.7401    -1.2671 C.ar    
  25 C25           -0.0513    -2.9926    -0.6261 C.ar    
  26 Cl26          -2.3085    -4.6867    -3.4493 Cl      
  27 Cl27           1.8688    -1.2740    -3.7069 Cl      
  28 H28           -0.0224    -1.1660     1.7058 H       
  29 H29           -0.5260    -0.8594     0.0199 H       
  30 H30            2.5308    -0.2539     2.1928 H       
  31 H31            3.5617    -0.1889     0.7423 H       
  32 H32            2.6214     1.9047     0.0469 H       
  33 H33            2.9177     2.0786     1.7946 H       
  34 H34            0.9952     6.9054     3.9632 H       
  35 H35            3.2952     6.3304     0.4117 H       
  36 H36            2.2033     4.1586     0.0426 H       
  37 H37           -0.2745    -2.9822    -4.4762 H       
  38 H38           -1.7105    -4.3327    -0.6897 H       
  39 H39            0.0110    -2.9998     0.4521 H       
@<TRIPOS>BOND
   1    1    2 1
   2    1    3 1
   3    1    8 2
   4    2    4 1
   5    2   28 1
   6    2   29 1
   7    3    6 1
   8    3    9 1
   9    4    5 1
  10    4   18 am
  11    5    6 1
  12    5   30 1
  13    5   31 1
  14    6   32 1
  15    6   33 1
  16    7    8 1
  17    7    9 2
  18    9   10 1
  19   10   11 ar
  20   10   15 ar
  21   11   12 ar
  22   11   17 1
  23   12   13 ar
  24   12   34 1
  25   13   14 ar
  26   13   16 1
  27   14   15 ar
  28   14   35 1
  29   15   36 1
  30   18   19 2
  31   18   20 1
  32   20   21 ar
  33   20   25 ar
  34   21   22 ar
  35   21   27 1
  36   22   23 ar
  37   22   37 1
  38   23   24 ar
  39   23   26 1
  40   24   25 ar
  41   24   38 1
  42   25   39 1

#	End of record

