#	Name: ASD03430078
#	Creating user name:	WinNT
#	Creation time:	15. 06. 2019 20:40

#	Modifying user name:	WinNT
#	Modification time:	15. 06. 2019 20:40

#	Program:	/corina/corina34_cracker 3.40 0067  02.08.2006

@<TRIPOS>MOLECULE
ASD03430078
  52   57    0    0    0
SMALL
NO_CHARGES


@<TRIPOS>ATOM
   1 C1            -0.0167     1.3826     0.0096 C.ar    
   2 C2             0.0021    -0.0041     0.0020 C.ar    
   3 C3             1.2025    -0.6815    -0.0157 C.ar    
   4 C4             2.4086     0.0136    -0.0156 C.ar    
   5 C5             2.3861     1.4041    -0.0118 C.ar    
   6 C6             1.1811     2.0871     0.0020 C.ar    
   7 O7             3.4712    -0.8413    -0.0057 O.3     
   8 C8             1.5510    -2.1454    -0.0502 C.3     
   9 C9             3.0365    -2.1452    -0.4366 C.3     
  10 C10            0.4282    -3.8603     1.0070 C.ar    
  11 C11            1.3153    -2.8200     1.2684 C.ar    
  12 C12            0.7173    -2.9061    -1.0410 C.2     
  13 N13            0.0986    -3.8845    -0.3504 N.am    
  14 O14            0.6196    -2.6836    -2.2292 O.2     
  15 C15            1.7821    -2.6005     2.5499 C.ar    
  16 C16            1.3664    -3.4225     3.5896 C.ar    
  17 C17            0.4865    -4.4573     3.3366 C.ar    
  18 C18            0.0189    -4.6786     2.0572 C.ar    
  19 C19           -0.8129    -4.8601    -0.9532 C.3     
  20 O20           -1.2112     2.0360     0.0189 O.3     
  21 C21           -1.1869     3.4167     0.3973 C.3     
  22 C22           -0.0355     4.0995    -0.3533 C.3     
  23 O23            1.1861     3.4487     0.0114 O.3     
  24 O24            2.6477    -1.5815     2.7932 O.3     
  25 C25            4.0364    -0.2436     4.2181 C.ar    
  26 C26            3.5483     1.0262     4.4635 C.ar    
  27 C27            4.4178     2.0982     4.5391 C.ar    
  28 C28            5.7754     1.9003     4.3698 C.ar    
  29 C29            6.2635     0.6303     4.1252 C.ar    
  30 C30            5.3939    -0.4414     4.0482 C.ar    
  31 C31            3.0891    -1.4132     4.1418 C.3     
  32 H32           -0.9268    -0.5550     0.0104 H       
  33 H33            3.3147     1.9554    -0.0192 H       
  34 H34            3.1560    -2.2565    -1.5144 H       
  35 H35            3.5752    -2.9286     0.0965 H       
  36 H36            1.7301    -3.2535     4.5923 H       
  37 H37            0.1631    -5.0968     4.1446 H       
  38 H38           -0.6684    -5.4902     1.8693 H       
  39 H39           -1.8316    -4.4736    -0.9214 H       
  40 H40           -0.5233    -5.0361    -1.9892 H       
  41 H41           -0.7621    -5.7965    -0.3976 H       
  42 H42           -2.1321     3.8884     0.1283 H       
  43 H43           -1.0262     3.5007     1.4721 H       
  44 H44           -0.1926     4.0092    -1.4282 H       
  45 H45            0.0114     5.1524    -0.0753 H       
  46 H46            2.4877     1.1808     4.5958 H       
  47 H47            4.0364     3.0904     4.7302 H       
  48 H48            6.4546     2.7379     4.4281 H       
  49 H49            7.3241     0.4758     3.9922 H       
  50 H50            5.7752    -1.4335     3.8564 H       
  51 H51            2.2291    -1.2268     4.7850 H       
  52 H52            3.6007    -2.3173     4.4721 H       
@<TRIPOS>BOND
   1    1    2 ar
   2    1    6 ar
   3    1   20 1
   4    2    3 ar
   5    2   32 1
   6    3    4 ar
   7    3    8 1
   8    4    5 ar
   9    4    7 1
  10    5    6 ar
  11    5   33 1
  12    6   23 1
  13    7    9 1
  14    8    9 1
  15    8   11 1
  16    8   12 1
  17    9   34 1
  18    9   35 1
  19   10   11 ar
  20   10   13 1
  21   10   18 ar
  22   11   15 ar
  23   12   13 am
  24   12   14 2
  25   13   19 1
  26   15   16 ar
  27   15   24 1
  28   16   17 ar
  29   16   36 1
  30   17   18 ar
  31   17   37 1
  32   18   38 1
  33   19   39 1
  34   19   40 1
  35   19   41 1
  36   20   21 1
  37   21   22 1
  38   21   42 1
  39   21   43 1
  40   22   23 1
  41   22   44 1
  42   22   45 1
  43   24   31 1
  44   25   26 ar
  45   25   30 ar
  46   25   31 1
  47   26   27 ar
  48   26   46 1
  49   27   28 ar
  50   27   47 1
  51   28   29 ar
  52   28   48 1
  53   29   30 ar
  54   29   49 1
  55   30   50 1
  56   31   51 1
  57   31   52 1

#	End of record

