#	Name: ASD01870129
#	Creating user name:	WinNT
#	Creation time:	15. 06. 2019 19:38

#	Modifying user name:	WinNT
#	Modification time:	15. 06. 2019 19:38

#	Program:	/corina/corina34_cracker 3.40 0067  02.08.2006

@<TRIPOS>MOLECULE
ASD01870129
  49   51    0    0    0
SMALL
NO_CHARGES


@<TRIPOS>ATOM
   1 C1            -0.2755     1.4183     0.0760 C.ar    
   2 C2            -0.2975     0.0377     0.0826 C.ar    
   3 C3             0.8867    -0.6821     0.1182 C.ar    
   4 C4             2.0989    -0.0250     0.1474 C.ar    
   5 C5             2.1342     1.3715     0.1410 C.ar    
   6 C6             0.9346     2.0946     0.1050 C.ar    
   7 O7             0.9571     3.4519     0.0980 O.3     
   8 C8             1.1409     4.0544    -1.0927 C.2     
   9 N9             1.0759     5.3973    -1.1855 N.am    
  10 O10            1.3652     3.3870    -2.0831 O.2     
  11 Cl11           0.8436    -2.4175     0.1268 Cl      
  12 C12            3.4275     2.0811     0.1720 C.2     
  13 O13            3.4543     3.2967     0.1663 O.2     
  14 N14            4.5791     1.3818     0.2066 N.am    
  15 C15            5.8062     2.0524     0.1635 C.ar    
  16 C16            5.9412     3.2956     0.7663 C.ar    
  17 C17            6.8947     1.4727    -0.4782 C.ar    
  18 C18            8.1052     2.1379    -0.5182 C.ar    
  19 C19            8.2339     3.3787     0.0791 C.ar    
  20 C20            7.1544     3.9551     0.7224 C.ar    
  21 Cl21           6.7336    -0.0849    -1.2275 Cl      
  22 C22            1.2561     6.1809    -2.4165 C.3     
  23 C23            1.0677     7.6669    -2.0454 C.3     
  24 C24            0.2335     7.5958    -0.7391 C.3     
  25 C25            0.8061     6.3236    -0.0708 C.3     
  26 C26            2.6423     5.9614    -2.9654 C.2     
  27 O27            3.5106     5.5158    -2.2531 O.2     
  28 O28            2.9124     6.2611    -4.2456 O.3     
  29 C29            4.2689     6.0239    -4.7061 C.3     
  30 N30            9.5320     4.0886     0.0343 N.pl3   
  31 O31           10.4852     3.5800    -0.5280 O.2     
  32 O32            9.6470     5.1813     0.5599 O.2     
  33 H33           -1.2020     1.9722     0.0437 H       
  34 H34           -1.2427    -0.4843     0.0603 H       
  35 H35            3.0194    -0.5892     0.1754 H       
  36 H36            4.5572     0.4136     0.2614 H       
  37 H37            5.0986     3.7470     1.2688 H       
  38 H38            8.9516     1.6884    -1.0161 H       
  39 H39            7.2586     4.9241     1.1877 H       
  40 H40            0.5114     5.8861    -3.1559 H       
  41 H41            2.0306     8.1438    -1.8626 H       
  42 H42            0.5178     8.1926    -2.8260 H       
  43 H43            0.4038     8.4756    -0.1185 H       
  44 H44           -0.8271     7.4740    -0.9589 H       
  45 H45            0.0761     5.8943     0.6154 H       
  46 H46            1.7321     6.5555     0.4554 H       
  47 H47            4.9632     6.6194    -4.1132 H       
  48 H48            4.5106     4.9669    -4.5954 H       
  49 H49            4.3513     6.3076    -5.7553 H       
@<TRIPOS>BOND
   1    1    2 ar
   2    1    6 ar
   3    1   33 1
   4    2    3 ar
   5    2   34 1
   6    3    4 ar
   7    3   11 1
   8    4    5 ar
   9    4   35 1
  10    5    6 ar
  11    5   12 1
  12    6    7 1
  13    7    8 1
  14    8    9 am
  15    8   10 2
  16    9   22 1
  17    9   25 1
  18   12   13 2
  19   12   14 am
  20   14   15 1
  21   14   36 1
  22   15   16 ar
  23   15   17 ar
  24   16   20 ar
  25   16   37 1
  26   17   18 ar
  27   17   21 1
  28   18   19 ar
  29   18   38 1
  30   19   20 ar
  31   19   30 1
  32   20   39 1
  33   22   23 1
  34   22   26 1
  35   22   40 1
  36   23   24 1
  37   23   41 1
  38   23   42 1
  39   24   25 1
  40   24   43 1
  41   24   44 1
  42   25   45 1
  43   25   46 1
  44   26   27 2
  45   26   28 1
  46   28   29 1
  47   29   47 1
  48   29   48 1
  49   29   49 1
  50   30   31 2
  51   30   32 2

#	End of record

