#	Name: ASD01917994
#	Creating user name:	WinNT
#	Creation time:	15. 06. 2019 20:10

#	Modifying user name:	WinNT
#	Modification time:	15. 06. 2019 20:10

#	Program:	/corina/corina34_cracker 3.40 0067  02.08.2006

@<TRIPOS>MOLECULE
ASD01917994
  44   47    0    0    0
SMALL
NO_CHARGES


@<TRIPOS>ATOM
   1 N1             4.7260    -0.5758    -2.1724 N.ar    
   2 C2             5.2105     0.1541    -3.1570 C.ar    
   3 N3             5.1518     1.4706    -3.1420 N.ar    
   4 C4             4.5986     2.1140    -2.1272 C.ar    
   5 C5             4.0752     1.3803    -1.0673 C.ar    
   6 C6             4.1573    -0.0074    -1.1221 C.ar    
   7 O7             3.4990     2.0032    -0.0058 O.3     
   8 C8             3.5510     3.3617     0.0430 C.2     
   9 N9             2.4066     5.4401    -0.0238 N.pl3   
  10 C10            2.4054     4.0776    -0.0664 C.2     
  11 C11            4.7874     3.9989     0.2114 C.2     
  12 C12            4.8353     5.3865     0.2606 C.2     
  13 C13            3.5797     6.1313     0.1332 C.2     
  14 C14            6.1155     6.0911     0.4368 C.2     
  15 N15            6.1429     7.4378     0.4822 N.am    
  16 C16            7.3370     8.1013     0.7543 C.ar    
  17 N17            8.4619     7.4099     0.8598 N.ar    
  18 C18            7.3370     9.4820     0.9065 C.ar    
  19 C19            8.5298    10.1328     1.1770 C.ar    
  20 C20            9.6864     9.3777     1.2863 C.ar    
  21 C21            9.6168     8.0015     1.1172 C.ar    
  22 O22            7.1488     5.4579     0.5413 O.2     
  23 C23            1.4053     6.3708    -0.1100 C.2     
  24 C24            1.9827     7.5871    -0.0121 C.2     
  25 N25            3.3007     7.4222     0.1406 N.2     
  26 C26            5.8503    -0.5366    -4.3337 C.3     
  27 O27           10.7454     7.2553     1.2175 O.3     
  28 C28           10.6089     5.8447     1.0340 C.3     
  29 H29            4.5543     3.1931    -2.1213 H       
  30 H30            3.7624    -0.6117    -0.3188 H       
  31 H31            1.4682     3.5556    -0.1909 H       
  32 H32            5.6932     3.4178     0.3022 H       
  33 H33            5.3310     7.9449     0.3255 H       
  34 H34            6.4179    10.0418     0.8148 H       
  35 H35            8.5576    11.2055     1.2995 H       
  36 H36           10.6322     9.8549     1.4965 H       
  37 H37            0.3519     6.1694    -0.2378 H       
  38 H38            1.4656     8.5347    -0.0438 H       
  39 H39            5.0937    -0.7386    -5.0919 H       
  40 H40            6.6243     0.1051    -4.7548 H       
  41 H41            6.2957    -1.4757    -4.0056 H       
  42 H42            9.9260     5.4452     1.7838 H       
  43 H43           10.2129     5.6444     0.0385 H       
  44 H44           11.5836     5.3685     1.1399 H       
@<TRIPOS>BOND
   1    1    2 ar
   2    1    6 ar
   3    2    3 ar
   4    2   26 1
   5    3    4 ar
   6    4    5 ar
   7    4   29 1
   8    5    6 ar
   9    5    7 1
  10    6   30 1
  11    7    8 1
  12    8   11 1
  13    8   10 2
  14    9   10 1
  15    9   23 1
  16    9   13 1
  17   10   31 1
  18   11   12 2
  19   11   32 1
  20   12   13 1
  21   12   14 1
  22   13   25 2
  23   14   15 am
  24   14   22 2
  25   15   16 1
  26   15   33 1
  27   16   18 ar
  28   16   17 ar
  29   17   21 ar
  30   18   19 ar
  31   18   34 1
  32   19   20 ar
  33   19   35 1
  34   20   21 ar
  35   20   36 1
  36   21   27 1
  37   23   24 2
  38   23   37 1
  39   24   25 1
  40   24   38 1
  41   26   39 1
  42   26   40 1
  43   26   41 1
  44   27   28 1
  45   28   42 1
  46   28   43 1
  47   28   44 1

#	End of record

