#	Name: ASD02198572
#	Creating user name:	WinNT
#	Creation time:	15. 06. 2019 20:19

#	Modifying user name:	WinNT
#	Modification time:	15. 06. 2019 20:19

#	Program:	/corina/corina34_cracker 3.40 0067  02.08.2006

@<TRIPOS>MOLECULE
ASD02198572
  51   55    0    0    0
SMALL
NO_CHARGES


@<TRIPOS>ATOM
   1 C1             0.0072     1.5096     0.1335 C.2     
   2 C2             0.0745     0.1696    -0.0947 C.2     
   3 N3            -1.0520    -0.5605    -0.2645 N.pl3   
   4 N4            -2.2299    -0.0571    -0.2233 N.2     
   5 C5            -2.4375     1.2258    -0.0099 C.2     
   6 C6            -1.2791     2.1066     0.1923 C.2     
   7 C7            -0.9244    -1.9342    -0.4972 C.ar    
   8 C8            -1.3842    -3.8645    -1.8499 C.ar    
   9 C9            -0.6714    -4.6547    -0.9577 C.ar    
  10 C10           -0.0903    -4.0825     0.1673 C.ar    
  11 C11           -0.2166    -2.7278     0.3970 C.ar    
  12 C12           -3.8107     1.7687     0.0301 C.2     
  13 N13           -4.3728     2.4811     1.0519 N.pl3   
  14 N14           -5.6844     2.7998     0.6788 N.2     
  15 C15           -5.9147     2.3074    -0.5122 C.2     
  16 C16           -4.7639     1.6575    -0.9583 C.2     
  17 C17           -3.7490     2.8295     2.2566 C.ar    
  18 C18           -2.9558     1.9043     2.9224 C.ar    
  19 O19           -1.4170     3.3046     0.3940 O.2     
  20 C20           -3.9179     4.1026     2.7849 C.ar    
  21 C21           -3.3016     4.4431     3.9730 C.ar    
  22 C22           -2.5169     3.5177     4.6365 C.ar    
  23 C23           -2.3421     2.2509     4.1102 C.ar    
  24 C24           -1.5112    -2.5073    -1.6214 C.ar    
  25 F25           -2.2048    -1.7378    -2.4885 F       
  26 O26            1.1345     2.2508     0.3052 O.3     
  27 C27            2.3829     1.5589     0.2347 C.3     
  28 N28           -0.5428    -6.0290    -1.1890 N.am    
  29 C29           -1.0590    -6.6956    -2.2306 C.2     
  30 C30            0.1864    -6.9761    -0.3318 C.3     
  31 C31            0.0078    -8.3298    -1.0459 C.3     
  32 O32           -0.7916    -8.0064    -2.2202 O.3     
  33 O33           -1.7109    -6.1587    -3.1042 O.2     
  34 H34            1.0378    -0.3164    -0.1412 H       
  35 H35           -1.8357    -4.3096    -2.7241 H       
  36 H36            0.4635    -4.6980     0.8607 H       
  37 H37            0.2352    -2.2842     1.2719 H       
  38 H38           -6.8412     2.3939    -1.0606 H       
  39 H39           -4.6438     1.1525    -1.9054 H       
  40 H40           -2.8192     0.9147     2.5121 H       
  41 H41           -4.5304     4.8259     2.2669 H       
  42 H42           -3.4323     5.4332     4.3841 H       
  43 H43           -2.0360     3.7863     5.5655 H       
  44 H44           -1.7287     1.5304     4.6308 H       
  45 H45            2.4851     1.0929    -0.7453 H       
  46 H46            3.1989     2.2650     0.3882 H       
  47 H47            2.4167     0.7909     1.0075 H       
  48 H48            1.2416    -6.7085    -0.2767 H       
  49 H49           -0.2541    -7.0079     0.6648 H       
  50 H50            0.9748    -8.7348    -1.3445 H       
  51 H51           -0.5205    -9.0341    -0.4032 H       
@<TRIPOS>BOND
   1    1    2 2
   2    1   26 1
   3    1    6 1
   4    2    3 1
   5    2   34 1
   6    3    4 1
   7    3    7 1
   8    4    5 2
   9    5    6 1
  10    5   12 1
  11    6   19 2
  12    7   24 ar
  13    7   11 ar
  14    8    9 ar
  15    8   24 ar
  16    8   35 1
  17    9   10 ar
  18    9   28 1
  19   10   11 ar
  20   10   36 1
  21   11   37 1
  22   12   13 1
  23   12   16 2
  24   13   14 1
  25   13   17 1
  26   14   15 2
  27   15   16 1
  28   15   38 1
  29   16   39 1
  30   17   20 ar
  31   17   18 ar
  32   18   23 ar
  33   18   40 1
  34   20   21 ar
  35   20   41 1
  36   21   22 ar
  37   21   42 1
  38   22   23 ar
  39   22   43 1
  40   23   44 1
  41   24   25 1
  42   26   27 1
  43   27   45 1
  44   27   46 1
  45   27   47 1
  46   28   29 am
  47   28   30 1
  48   29   33 2
  49   29   32 1
  50   30   31 1
  51   30   48 1
  52   30   49 1
  53   31   32 1
  54   31   50 1
  55   31   51 1

#	End of record

