#	Name: ASD01881613
#	Creating user name:	WinNT
#	Creation time:	15. 06. 2019 19:43

#	Modifying user name:	WinNT
#	Modification time:	15. 06. 2019 19:43

#	Program:	/corina/corina34_cracker 3.40 0067  02.08.2006

@<TRIPOS>MOLECULE
ASD01881613
  45   47    0    0    0
SMALL
NO_CHARGES


@<TRIPOS>ATOM
   1 N1            -0.0154     1.2845     0.0131 N.pl3   
   2 N2             0.0018    -0.0034    -0.0050 N.2     
   3 N3             1.2029    -0.4643    -0.0252 N.2     
   4 C4             2.0739     0.5649    -0.0209 C.ar    
   5 C5             1.2843     1.7302     0.0044 C.ar    
   6 C6             3.4668     0.6762    -0.0350 C.ar    
   7 C7             4.0484     1.9286    -0.0239 C.ar    
   8 C8             3.2562     3.0740     0.0012 C.ar    
   9 C9             1.8926     2.9787     0.0144 C.ar    
  10 O10            5.4033     2.0444    -0.0370 O.3     
  11 C11            5.9405     3.3642    -0.1452 C.3     
  12 C12            6.0180     3.9988     1.2449 C.3     
  13 C13            7.3217     3.2967    -0.7442 C.ar    
  14 C14            7.8172     2.0834    -1.1838 C.ar    
  15 C15            9.0887     2.0323    -1.7337 C.ar    
  16 C16            9.8176     3.2087    -1.8213 C.ar    
  17 C17            9.2564     4.3845    -1.3609 C.ar    
  18 N18            8.0415     4.3966    -0.8480 N.ar    
  19 C19           -1.2132     2.1279     0.0332 C.3     
  20 C20           -1.6198     2.4018     1.4825 C.3     
  21 C21           -0.4784     3.1197     2.2054 C.3     
  22 C22           -2.8707     3.2826     1.5034 C.3     
  23 C23           -1.9170     1.0770     2.1879 C.3     
  24 Br24           4.5467    -0.8758    -0.0684 Br      
  25 H25            3.7241     4.0474     0.0100 H       
  26 H26            1.2886     3.8738     0.0336 H       
  27 H27            5.2962     3.9675    -0.7846 H       
  28 H28            6.4278     5.0054     1.1623 H       
  29 H29            5.0190     4.0476     1.6781 H       
  30 H30            6.6623     3.3955     1.8843 H       
  31 H31            7.2214     1.1866    -1.0996 H       
  32 H32            9.5019     1.0984    -2.0852 H       
  33 H33           10.8116     3.2060    -2.2438 H       
  34 H34            9.8176     5.3050    -1.4256 H       
  35 H35           -1.0014     3.0716    -0.4694 H       
  36 H36           -2.0263     1.6164    -0.4819 H       
  37 H37           -0.2666     4.0635     1.7029 H       
  38 H38           -0.7681     3.3149     3.2380 H       
  39 H39            0.4128     2.4922     2.1905 H       
  40 H40           -3.6838     2.7711     0.9884 H       
  41 H41           -3.1604     3.4777     2.5359 H       
  42 H42           -2.6589     4.2264     1.0009 H       
  43 H43           -1.0259     0.4495     2.1730 H       
  44 H44           -2.2067     1.2722     3.2204 H       
  45 H45           -2.7302     0.5656     1.6728 H       
@<TRIPOS>BOND
   1    1    2 1
   2    1    5 1
   3    1   19 1
   4    2    3 2
   5    3    4 1
   6    4    5 ar
   7    4    6 ar
   8    5    9 ar
   9    6    7 ar
  10    6   24 1
  11    7    8 ar
  12    7   10 1
  13    8    9 ar
  14    8   25 1
  15    9   26 1
  16   10   11 1
  17   11   12 1
  18   11   13 1
  19   11   27 1
  20   12   28 1
  21   12   29 1
  22   12   30 1
  23   13   14 ar
  24   13   18 ar
  25   14   15 ar
  26   14   31 1
  27   15   16 ar
  28   15   32 1
  29   16   17 ar
  30   16   33 1
  31   17   18 ar
  32   17   34 1
  33   19   20 1
  34   19   35 1
  35   19   36 1
  36   20   21 1
  37   20   22 1
  38   20   23 1
  39   21   37 1
  40   21   38 1
  41   21   39 1
  42   22   40 1
  43   22   41 1
  44   22   42 1
  45   23   43 1
  46   23   44 1
  47   23   45 1

#	End of record

