#	Name: ASD03740046
#	Creating user name:	WinNT
#	Creation time:	15. 06. 2019 20:46

#	Modifying user name:	WinNT
#	Modification time:	15. 06. 2019 20:46

#	Program:	/corina/corina34_cracker 3.40 0067  02.08.2006

@<TRIPOS>MOLECULE
ASD03740046
  54   57    0    0    0
SMALL
NO_CHARGES


@<TRIPOS>ATOM
   1 C1            -0.2941     2.3286    -0.6539 C.3     
   2 C2            -0.4904     0.8510    -0.4335 C.2     
   3 C3             0.5225    -0.0555    -0.7777 C.2     
   4 C4             1.6897     0.3459    -1.3317 C.2     
   5 C5             1.9685     1.8015    -1.6189 C.3     
   6 C6             1.1989     2.6508    -0.5921 C.3     
   7 C7             2.6933    -0.6498    -1.6938 C.2     
   8 C8             3.9072    -0.2978    -2.0736 C.2     
   9 C9             4.3950     1.1296    -2.1657 C.3     
  10 C10            3.4532     2.0999    -1.4620 C.3     
  11 O11           -1.5314     0.4447     0.0416 O.2     
  12 C12            1.4507     2.1269    -3.0178 C.3     
  13 H13            3.6633     1.9731    -0.3661 H       
  14 C14            4.6055     1.5098    -3.5952 C.3     
  15 C15            5.0061     2.9744    -3.8322 C.3     
  16 C16            3.9857     3.9041    -3.2258 C.3     
  17 C17            3.7605     3.5596    -1.7559 C.3     
  18 C18            5.7284     1.1198    -1.3822 C.3     
  19 C19            5.6735     0.7670    -4.4117 C.3     
  20 C20            5.7276     1.6165    -5.7168 C.3     
  21 C21            5.0749     2.9820    -5.3749 C.3     
  22 H22            3.6450     1.3264    -4.1398 H       
  23 C23            6.4041     3.3403    -3.3363 C.3     
  24 C24            5.9462     4.1154    -5.8403 C.2     
  25 C25            5.3438     5.4728    -6.0963 C.3     
  26 O26            7.1287     3.9381    -6.0089 O.2     
  27 H27           -0.7202     2.6271    -1.6066 H       
  28 H28           -0.8100     2.8753     0.1440 H       
  29 H29            0.3636    -1.1102    -0.5980 H       
  30 H30            1.3490     3.7078    -0.8082 H       
  31 H31            1.5797     2.4273     0.4061 H       
  32 H32            2.4312    -1.7001    -1.6473 H       
  33 H33            4.6133    -1.0802    -2.3389 H       
  34 H34            0.3781     1.9380    -3.0613 H       
  35 H35            1.6442     3.1760    -3.2418 H       
  36 H36            1.9602     1.4993    -3.7489 H       
  37 H37            4.3772     4.9375    -3.2864 H       
  38 H38            3.0621     3.8911    -3.7981 H       
  39 H39            2.9403     4.1807    -1.3730 H       
  40 H40            4.6495     3.8520    -1.1796 H       
  41 H41            6.4748     0.5566    -1.9424 H       
  42 H42            6.0752     2.1436    -1.2424 H       
  43 H43            5.5749     0.6522    -0.4096 H       
  44 H44            6.6365     0.7465    -3.9185 H       
  45 H45            5.3361    -0.2471    -4.6384 H       
  46 H46            6.7613     1.7600    -6.0254 H       
  47 H47            5.1627     1.1198    -6.5042 H       
  48 H48            4.0768     3.0504    -5.7882 H       
  49 H49            7.1213     2.6014    -3.6937 H       
  50 H50            6.6777     4.3251    -3.7150 H       
  51 H51            6.4106     3.3554    -2.2464 H       
  52 H52            4.2737     5.4399    -5.8915 H       
  53 H53            5.8158     6.2085    -5.4452 H       
  54 H54            5.5060     5.7519    -7.1374 H       
@<TRIPOS>BOND
   1    1    2 1
   2    1    6 1
   3    1   27 1
   4    1   28 1
   5    2    3 1
   6    2   11 2
   7    3    4 2
   8    3   29 1
   9    4    5 1
  10    4    7 1
  11    5    6 1
  12    5   10 1
  13    5   12 1
  14    6   30 1
  15    6   31 1
  16    7    8 2
  17    7   32 1
  18    8    9 1
  19    8   33 1
  20    9   10 1
  21    9   18 1
  22    9   14 1
  23   10   13 1
  24   10   17 1
  25   12   34 1
  26   12   35 1
  27   12   36 1
  28   14   19 1
  29   14   22 1
  30   14   15 1
  31   15   16 1
  32   15   23 1
  33   15   21 1
  34   16   17 1
  35   16   37 1
  36   16   38 1
  37   17   39 1
  38   17   40 1
  39   18   41 1
  40   18   42 1
  41   18   43 1
  42   19   20 1
  43   19   44 1
  44   19   45 1
  45   20   21 1
  46   20   46 1
  47   20   47 1
  48   21   24 1
  49   21   48 1
  50   23   49 1
  51   23   50 1
  52   23   51 1
  53   24   25 1
  54   24   26 2
  55   25   52 1
  56   25   53 1
  57   25   54 1

#	End of record

