#	Name: ASD01141057
#	Creating user name:	WinNT
#	Creation time:	15. 06. 2019 19:01

#	Modifying user name:	WinNT
#	Modification time:	15. 06. 2019 19:01

#	Program:	/corina/corina34_cracker 3.40 0067  02.08.2006

@<TRIPOS>MOLECULE
ASD01141057
  39   40    0    0    0
SMALL
NO_CHARGES


@<TRIPOS>ATOM
   1 C1             0.0261     1.1583    -0.0262 C.2     
   2 C2            -0.2123    -0.1457     0.3679 C.2     
   3 C3             1.4038     1.6439    -0.1602 C.2     
   4 C4            -1.0988     2.0543    -0.3161 C.2     
   5 N5            -1.4725    -0.5533     0.6239 N.pl3   
   6 O6             2.1227     1.2007    -1.0366 O.2     
   7 C7             1.9192     2.6716     0.7693 C.ar    
   8 O8            -2.2342     1.6193    -0.3312 O.2     
   9 O9            -0.8737     3.3601    -0.5656 O.3     
  10 C10           -1.7142    -1.8734     1.0171 C.ar    
  11 C11            3.2025     3.1935     0.5956 C.ar    
  12 C12            1.1223     3.1282     1.8210 C.ar    
  13 C13           -3.0114    -2.2941     1.2810 C.ar    
  14 C14           -0.6580    -2.7673     1.1386 C.ar    
  15 C15            3.6777     4.1517     1.4659 C.ar    
  16 C16            1.6084     4.0868     2.6848 C.ar    
  17 C17           -3.2477    -3.5983     1.6686 C.ar    
  18 C18           -0.8996    -4.0720     1.5215 C.ar    
  19 C19            2.8846     4.5967     2.5107 C.ar    
  20 C20           -2.1925    -4.4864     1.7947 C.ar    
  21 F21           -2.4267    -5.7632     2.1690 F       
  22 H22           -2.2111     0.0693     0.5354 H       
  23 C23           -2.0190     4.1643    -0.9528 C.3     
  24 C24           -1.5530     5.5773    -1.3091 C.3     
  25 Cl25           3.4899     5.8030     3.6026 Cl      
  26 H26            0.6104    -0.8377     0.4706 H       
  27 H27            3.8219     2.8470    -0.2184 H       
  28 H28            0.1270     2.7317     1.9574 H       
  29 H29           -3.8345    -1.6018     1.1835 H       
  30 H30            0.3513    -2.4424     0.9336 H       
  31 H31            4.6718     4.5529     1.3352 H       
  32 H32            0.9929     4.4409     3.4986 H       
  33 H33           -4.2561    -3.9259     1.8739 H       
  34 H34           -0.0787    -4.7674     1.6161 H       
  35 H35           -2.5042     3.7127    -1.8181 H       
  36 H36           -2.7256     4.2129    -0.1242 H       
  37 H37           -0.9912     5.9960    -0.4742 H       
  38 H38           -0.9156     5.5378    -2.1925 H       
  39 H39           -2.4202     6.2049    -1.5146 H       
@<TRIPOS>BOND
   1    1    2 2
   2    1    3 1
   3    1    4 1
   4    2    5 1
   5    2   26 1
   6    3    6 2
   7    3    7 1
   8    4    9 1
   9    4    8 2
  10    5   22 1
  11    5   10 1
  12    7   11 ar
  13    7   12 ar
  14    9   23 1
  15   10   13 ar
  16   10   14 ar
  17   11   15 ar
  18   11   27 1
  19   12   16 ar
  20   12   28 1
  21   13   17 ar
  22   13   29 1
  23   14   18 ar
  24   14   30 1
  25   15   19 ar
  26   15   31 1
  27   16   19 ar
  28   16   32 1
  29   17   20 ar
  30   17   33 1
  31   18   20 ar
  32   18   34 1
  33   19   25 1
  34   20   21 1
  35   23   24 1
  36   23   35 1
  37   23   36 1
  38   24   37 1
  39   24   38 1
  40   24   39 1

#	End of record

