#	Name: ASD01884737
#	Creating user name:	WinNT
#	Creation time:	15. 06. 2019 19:48

#	Modifying user name:	WinNT
#	Modification time:	15. 06. 2019 19:48

#	Program:	/corina/corina34_cracker 3.40 0067  02.08.2006

@<TRIPOS>MOLECULE
ASD01884737
  63   66    0    0    0
SMALL
NO_CHARGES


@<TRIPOS>ATOM
   1 C1            -2.3906     1.3995     0.0005 C.2     
   2 C2            -2.4224     0.0072    -0.0073 C.2     
   3 C3            -1.2135    -0.6983     0.0098 C.2     
   4 C4            -0.0308    -0.0230     0.0343 C.2     
   5 N5             0.0020     1.3342     0.0420 N.am    
   6 C6            -1.1337     2.0570     0.0197 C.2     
   7 O7            -1.0821     3.2754     0.0269 O.2     
   8 C8             1.2944     2.0236     0.0689 C.3     
   9 C9            -3.6068     2.1552    -0.0165 C.1     
  10 N10           -4.5717     2.7546    -0.0299 N.1     
  11 C11            1.7703     2.2711    -1.3640 C.3     
  12 C12            3.1201     2.9910    -1.3359 C.3     
  13 C13            4.1742     2.0743    -0.7119 C.3     
  14 C14            3.5367     3.3495    -2.7638 C.3     
  15 N15           -1.2200    -2.1015     0.0024 N.pl3   
  16 C16            0.0349    -2.8552    -0.1238 C.3     
  17 C17            0.1295    -3.8523     1.0355 C.3     
  18 C18           -1.1282    -4.7233     1.0577 C.3     
  19 C19           -2.3596    -3.8426     1.2772 C.3     
  20 C20           -2.4813    -2.8449     0.1267 C.3     
  21 C21           -1.2599    -5.4632    -0.2759 C.3     
  22 C22           -0.0544    -6.3877    -0.4615 C.3     
  23 N23            0.0038    -7.3470     0.6489 N.3     
  24 C24            0.1775    -6.6613     1.9356 C.3     
  25 C25           -1.0211    -5.7449     2.1927 C.3     
  26 C26            1.0046    -8.2810     0.4455 C.ar    
  27 N27            1.2003    -9.2271     1.3522 N.ar    
  28 C28            2.1483   -10.1350     1.1883 C.ar    
  29 C29            2.9406   -10.0877     0.0520 C.ar    
  30 C30            2.7088    -9.0848    -0.8761 C.ar    
  31 N31            1.7408    -8.2111    -0.6539 N.ar    
  32 H32           -3.3649    -0.5198    -0.0260 H       
  33 H33            0.8964    -0.5765     0.0481 H       
  34 H34            1.1869     2.9771     0.5858 H       
  35 H35            2.0244     1.4066     0.5927 H       
  36 H36            1.8778     1.3175    -1.8810 H       
  37 H37            1.0403     2.8881    -1.8879 H       
  38 H38            3.0338     3.9017    -0.7431 H       
  39 H39            3.8773     1.8189     0.3053 H       
  40 H40            4.2604     1.1636    -1.3047 H       
  41 H41            5.1357     2.5872    -0.6919 H       
  42 H42            2.7857     4.0026    -3.2083 H       
  43 H43            4.4983     3.8624    -2.7437 H       
  44 H44            3.6229     2.4388    -3.3565 H       
  45 H45            0.0438    -3.3943    -1.0711 H       
  46 H46            0.8797    -2.1676    -0.0843 H       
  47 H47            1.0074    -4.4842     0.9011 H       
  48 H48            0.2124    -3.3090     1.9768 H       
  49 H49           -3.2519    -4.4675     1.3142 H       
  50 H50           -2.2558    -3.2998     2.2167 H       
  51 H51           -3.2972    -2.1511     0.3295 H       
  52 H52           -2.6766    -3.3804    -0.8023 H       
  53 H53           -2.1755    -6.0548    -0.2750 H       
  54 H54           -1.2935    -4.7407    -1.0913 H       
  55 H55           -0.1523    -6.9277    -1.4032 H       
  56 H56            0.8596    -5.7940    -0.4767 H       
  57 H57            0.2479    -7.3998     2.7342 H       
  58 H58            1.0905    -6.0664     1.9098 H       
  59 H59           -0.8841    -5.2235     3.1400 H       
  60 H60           -1.9329    -6.3409     2.2331 H       
  61 H61            2.3033   -10.9035     1.9311 H       
  62 H62            3.7218   -10.8164    -0.1065 H       
  63 H63            3.3086    -9.0199    -1.7719 H       
@<TRIPOS>BOND
   1    1    2 2
   2    1    9 1
   3    1    6 1
   4    2    3 1
   5    2   32 1
   6    3    4 2
   7    3   15 1
   8    4    5 1
   9    4   33 1
  10    5    8 1
  11    5    6 am
  12    6    7 2
  13    8   11 1
  14    8   34 1
  15    8   35 1
  16    9   10 3
  17   11   12 1
  18   11   36 1
  19   11   37 1
  20   12   13 1
  21   12   14 1
  22   12   38 1
  23   13   39 1
  24   13   40 1
  25   13   41 1
  26   14   42 1
  27   14   43 1
  28   14   44 1
  29   15   16 1
  30   15   20 1
  31   16   17 1
  32   16   45 1
  33   16   46 1
  34   17   18 1
  35   17   47 1
  36   17   48 1
  37   18   19 1
  38   18   21 1
  39   18   25 1
  40   19   20 1
  41   19   49 1
  42   19   50 1
  43   20   51 1
  44   20   52 1
  45   21   22 1
  46   21   53 1
  47   21   54 1
  48   22   23 1
  49   22   55 1
  50   22   56 1
  51   23   24 1
  52   23   26 1
  53   24   25 1
  54   24   57 1
  55   24   58 1
  56   25   59 1
  57   25   60 1
  58   26   27 ar
  59   26   31 ar
  60   27   28 ar
  61   28   29 ar
  62   28   61 1
  63   29   30 ar
  64   29   62 1
  65   30   31 ar
  66   30   63 1

#	End of record

