#	Name: ASD01903137
#	Creating user name:	WinNT
#	Creation time:	15. 06. 2019 19:54

#	Modifying user name:	WinNT
#	Modification time:	15. 06. 2019 19:54

#	Program:	/corina/corina34_cracker 3.40 0067  02.08.2006

@<TRIPOS>MOLECULE
ASD01903137
  44   46    0    0    0
SMALL
NO_CHARGES


@<TRIPOS>ATOM
   1 C1             1.2688    -1.6634     0.4117 C.ar    
   2 C2             0.3832    -1.0448    -0.4565 C.ar    
   3 C3             0.7830     0.0942    -1.1374 C.ar    
   4 N4             1.9882     0.5930    -0.9701 N.ar    
   5 C5             2.8665     0.0312    -0.1483 C.ar    
   6 C6             2.5326    -1.1156     0.5684 C.ar    
   7 C7             4.2128     0.6289     0.0079 C.2     
   8 N8             4.5418     1.7385    -0.6828 N.am    
   9 O9             5.0207     0.1187     0.7589 O.2     
  10 C10            5.7760     2.3581    -0.4638 C.ar    
  11 C11            6.8994     1.5915    -0.1818 C.ar    
  12 C12            8.1169     2.2066     0.0341 C.ar    
  13 C13            8.2183     3.5843    -0.0302 C.ar    
  14 C14            7.1017     4.3505    -0.3103 C.ar    
  15 C15            5.8825     3.7412    -0.5333 C.ar    
  16 S16            9.7735     4.3651     0.2458 S.o2    
  17 O17            9.4910     5.7211     0.5631 O.2     
  18 O18           10.5086     3.5031     1.1036 O.2     
  19 N19           10.5777     4.3813    -1.2017 N.am    
  20 C20           10.9058     3.1788    -1.8318 C.ar    
  21 C21           10.6667     3.0178    -3.1895 C.ar    
  22 C22           10.9937     1.8228    -3.8111 C.ar    
  23 C23           11.5591     0.7909    -3.0755 C.ar    
  24 C24           11.7966     0.9528    -1.7236 C.ar    
  25 C25           11.4775     2.1439    -1.1014 C.ar    
  26 O26           10.7604     1.6618    -5.1402 O.3     
  27 C27           11.1223     0.4044    -5.7147 C.3     
  28 H28            0.9795    -2.5494     0.9571 H       
  29 H29           -0.6088    -1.4466    -0.6012 H       
  30 H30            0.0955     0.5786    -1.8150 H       
  31 H31            3.2482    -1.5717     1.2363 H       
  32 H32            3.9224     2.1072    -1.3319 H       
  33 H33            6.8208     0.5155    -0.1310 H       
  34 H34            8.9907     1.6111     0.2537 H       
  35 H35            7.1842     5.4262    -0.3595 H       
  36 H36            5.0108     4.3402    -0.7520 H       
  37 H37           10.8208     5.2260    -1.6120 H       
  38 H38           10.2262     3.8218    -3.7604 H       
  39 H39           11.8135    -0.1403    -3.5599 H       
  40 H40           12.2364     0.1479    -1.1534 H       
  41 H41           11.6645     2.2681    -0.0450 H       
  42 H42           10.5676    -0.3937    -5.2212 H       
  43 H43           10.8837     0.4087    -6.7783 H       
  44 H44           12.1916     0.2390    -5.5829 H       
@<TRIPOS>BOND
   1    1    2 ar
   2    1    6 ar
   3    1   28 1
   4    2    3 ar
   5    2   29 1
   6    3    4 ar
   7    3   30 1
   8    4    5 ar
   9    5    6 ar
  10    5    7 1
  11    6   31 1
  12    7    8 am
  13    7    9 2
  14    8   10 1
  15    8   32 1
  16   10   11 ar
  17   10   15 ar
  18   11   12 ar
  19   11   33 1
  20   12   13 ar
  21   12   34 1
  22   13   14 ar
  23   13   16 1
  24   14   15 ar
  25   14   35 1
  26   15   36 1
  27   16   17 2
  28   16   18 2
  29   16   19 am
  30   19   20 1
  31   19   37 1
  32   20   21 ar
  33   20   25 ar
  34   21   22 ar
  35   21   38 1
  36   22   23 ar
  37   22   26 1
  38   23   24 ar
  39   23   39 1
  40   24   25 ar
  41   24   40 1
  42   25   41 1
  43   26   27 1
  44   27   42 1
  45   27   43 1
  46   27   44 1

#	End of record

