#	Name: ASD03330994
#	Creating user name:	WinNT
#	Creation time:	15. 06. 2019 20:38

#	Modifying user name:	WinNT
#	Modification time:	15. 06. 2019 20:38

#	Program:	/corina/corina34_cracker 3.40 0067  02.08.2006

@<TRIPOS>MOLECULE
ASD03330994
  68   71    0    0    0
SMALL
NO_CHARGES


@<TRIPOS>ATOM
   1 N1            -0.5154     1.7067    -0.1420 N.pl3   
   2 C2            -0.3586     0.3657     0.0174 C.2     
   3 C3             0.9512    -0.3446     0.2391 C.3     
   4 N4             1.7115     0.3605     1.2828 N.3     
   5 C5             2.5491     1.4148     0.7079 C.3     
   6 C6             1.8748     2.0459    -0.5070 C.3     
   7 C7             0.5578     2.7033    -0.0857 C.3     
   8 C8            -1.8436     1.9411    -0.3485 C.2     
   9 N9            -2.4834     0.7963    -0.3009 N.2     
  10 C10           -1.5955    -0.1964    -0.0736 C.2     
  11 C11           -1.9095    -1.6305     0.0531 C.2     
  12 O12           -1.0184    -2.4323     0.2587 O.2     
  13 N13           -3.1842    -2.0537    -0.0587 N.am    
  14 C14            2.5172    -0.5797     2.0732 C.3     
  15 C15           -4.7766    -3.7804    -0.6687 C.2     
  16 C16           -3.4964    -3.4795     0.0673 C.3     
  17 C17           -3.6621    -3.8366     1.5458 C.3     
  18 C18           -4.0524    -5.3104     1.6739 C.3     
  19 O19           -5.6224    -2.9199    -0.7910 O.2     
  20 O20           -5.0293    -7.0216    -3.0594 O.3     
  21 C21           -5.9784    -5.9617    -3.1987 C.3     
  22 C22           -6.2650    -5.3563    -1.8198 C.3     
  23 N23           -4.9815    -5.0059    -1.1910 N.am    
  24 C24           -3.9283    -6.0327    -1.1498 C.3     
  25 C25           -3.7557    -6.6051    -2.5613 C.3     
  26 C26           -2.3422    -3.5929     2.2803 C.3     
  27 C27           -4.7572    -2.9636     2.1617 C.3     
  28 C28           -2.4597     3.2649    -0.5857 C.ar    
  29 C29           -3.7274     3.3537    -1.1625 C.ar    
  30 C30           -4.2980     4.5920    -1.3812 C.ar    
  31 C31           -3.6120     5.7461    -1.0281 C.ar    
  32 C32           -2.3536     5.6612    -0.4560 C.ar    
  33 C33           -1.7778     4.4282    -0.2283 C.ar    
  34 F34           -4.1735     6.9558    -1.2437 F       
  35 F35           -5.5249     4.6805    -1.9398 F       
  36 H36            0.7605    -1.3697     0.5570 H       
  37 H37            1.5242    -0.3502    -0.6881 H       
  38 H38            2.7237     2.1838     1.4604 H       
  39 H39            3.5051     0.9875     0.4052 H       
  40 H40            2.5347     2.7995    -0.9369 H       
  41 H41            1.6734     1.2751    -1.2508 H       
  42 H42            0.3276     3.5254    -0.7635 H       
  43 H43            0.6493     3.0833     0.9319 H       
  44 H44           -3.8949    -1.4143    -0.2227 H       
  45 H45            3.1697    -1.1465     1.4090 H       
  46 H46            3.1222    -0.0256     2.7909 H       
  47 H47            1.8577    -1.2646     2.6061 H       
  48 H48           -2.6847    -4.0683    -0.3599 H       
  49 H49           -3.2662    -5.9330     1.2467 H       
  50 H50           -4.1832    -5.5615     2.7265 H       
  51 H51           -4.9860    -5.4868     1.1396 H       
  52 H52           -5.5721    -5.1932    -3.8564 H       
  53 H53           -6.9026    -6.3539    -3.6233 H       
  54 H54           -6.8756    -4.4604    -1.9319 H       
  55 H55           -6.7902    -6.0841    -1.2013 H       
  56 H56           -2.9916    -5.5847    -0.8182 H       
  57 H57           -4.2183    -6.8286    -0.4638 H       
  58 H58           -3.0806    -7.4603    -2.5274 H       
  59 H59           -3.3413    -5.8390    -3.2167 H       
  60 H60           -2.0641    -2.5430     2.1891 H       
  61 H61           -2.4603    -3.8473     3.3336 H       
  62 H62           -1.5620    -4.2149     1.8415 H       
  63 H63           -5.6975    -3.1372     1.6384 H       
  64 H64           -4.8753    -3.2180     3.2150 H       
  65 H65           -4.4791    -1.9136     2.0704 H       
  66 H66           -4.2609     2.4559    -1.4375 H       
  67 H67           -1.8237     6.5619    -0.1833 H       
  68 H68           -0.7983     4.3639     0.2221 H       
@<TRIPOS>BOND
   1    1    2 1
   2    1    7 1
   3    1    8 1
   4    2    3 1
   5    2   10 2
   6    3    4 1
   7    3   36 1
   8    3   37 1
   9    4    5 1
  10    4   14 1
  11    5    6 1
  12    5   38 1
  13    5   39 1
  14    6    7 1
  15    6   40 1
  16    6   41 1
  17    7   42 1
  18    7   43 1
  19    8    9 2
  20    8   28 1
  21    9   10 1
  22   10   11 1
  23   11   12 2
  24   11   13 am
  25   13   16 1
  26   13   44 1
  27   14   45 1
  28   14   46 1
  29   14   47 1
  30   15   19 2
  31   15   23 am
  32   15   16 1
  33   16   17 1
  34   16   48 1
  35   17   18 1
  36   17   26 1
  37   17   27 1
  38   18   49 1
  39   18   50 1
  40   18   51 1
  41   20   21 1
  42   20   25 1
  43   21   22 1
  44   21   52 1
  45   21   53 1
  46   22   23 1
  47   22   54 1
  48   22   55 1
  49   23   24 1
  50   24   25 1
  51   24   56 1
  52   24   57 1
  53   25   58 1
  54   25   59 1
  55   26   60 1
  56   26   61 1
  57   26   62 1
  58   27   63 1
  59   27   64 1
  60   27   65 1
  61   28   29 ar
  62   28   33 ar
  63   29   30 ar
  64   29   66 1
  65   30   31 ar
  66   30   35 1
  67   31   32 ar
  68   31   34 1
  69   32   33 ar
  70   32   67 1
  71   33   68 1

#	End of record

