#	Name: ASD01910234
#	Creating user name:	WinNT
#	Creation time:	15. 06. 2019 19:55

#	Modifying user name:	WinNT
#	Modification time:	15. 06. 2019 19:55

#	Program:	/corina/corina34_cracker 3.40 0067  02.08.2006

@<TRIPOS>MOLECULE
ASD01910234
  44   47    0    0    0
SMALL
NO_CHARGES


@<TRIPOS>ATOM
   1 C1            -0.0438     1.3204     0.0310 C.2     
   2 C2             1.1655     2.2196     0.0177 C.3     
   3 C3             1.1337     3.0999    -1.2338 C.3     
   4 C4             2.3781     3.9902    -1.2651 C.3     
   5 C5             2.3806     4.9009    -0.0333 C.3     
   6 N6             2.2650     4.0675     1.1712 N.am    
   7 C7             1.1543     3.1102     1.2640 C.3     
   8 C8             3.1608     4.1790     2.1720 C.2     
   9 C9             4.3229     5.0767     2.0254 C.ar    
  10 O10            3.0115     3.5401     3.1956 O.2     
  11 N11           -0.0393     0.0107     0.0345 N.2     
  12 C12           -1.3406    -0.3569     0.0481 C.2     
  13 N13           -2.0517     0.7406     0.0521 N.2     
  14 O14           -1.3224     1.7097     0.0475 O.3     
  15 C15           -1.8636    -1.7455     0.0561 C.ar    
  16 C16           -3.2382    -1.9743     0.0701 C.ar    
  17 C17           -3.7202    -3.2669     0.0771 C.ar    
  18 C18           -2.8397    -4.3369     0.0701 C.ar    
  19 C19           -1.4722    -4.1138     0.0562 C.ar    
  20 C20           -0.9817    -2.8244     0.0438 C.ar    
  21 F21           -3.3160    -5.6011     0.0774 F       
  22 C22            4.1330     6.4238     1.7082 C.ar    
  23 C23            5.2215     7.2576     1.5724 C.ar    
  24 C24            6.5054     6.7630     1.7495 C.ar    
  25 C25            6.7028     5.4284     2.0643 C.ar    
  26 C26            5.6195     4.5834     2.2093 C.ar    
  27 F27            5.8118     3.2819     2.5168 F       
  28 F28            7.5679     7.5864     1.6139 F       
  29 H29            2.0705     1.6121     0.0122 H       
  30 H30            1.1168     2.4681    -2.1219 H       
  31 H31            0.2407     3.7245    -1.2158 H       
  32 H32            3.2720     3.3664    -1.2581 H       
  33 H33            2.3665     4.6001    -2.1684 H       
  34 H34            3.3119     5.4661     0.0014 H       
  35 H35            1.5357     5.5877    -0.0849 H       
  36 H36            0.2094     3.6510     1.3182 H       
  37 H37            1.2765     2.4939     2.1547 H       
  38 H38           -3.9251    -1.1410     0.0759 H       
  39 H39           -4.7853    -3.4452     0.0883 H       
  40 H40           -0.7894    -4.9506     0.0508 H       
  41 H41            0.0843    -2.6515     0.0329 H       
  42 H42            3.1345     6.8111     1.5691 H       
  43 H43            5.0747     8.2990     1.3271 H       
  44 H44            7.7047     5.0490     2.2006 H       
@<TRIPOS>BOND
   1    1   11 2
   2    1    2 1
   3    1   14 1
   4    2    3 1
   5    2    7 1
   6    2   29 1
   7    3    4 1
   8    3   30 1
   9    3   31 1
  10    4    5 1
  11    4   32 1
  12    4   33 1
  13    5    6 1
  14    5   34 1
  15    5   35 1
  16    6    7 1
  17    6    8 am
  18    7   36 1
  19    7   37 1
  20    8    9 1
  21    8   10 2
  22    9   22 ar
  23    9   26 ar
  24   11   12 1
  25   12   13 2
  26   12   15 1
  27   13   14 1
  28   15   16 ar
  29   15   20 ar
  30   16   17 ar
  31   16   38 1
  32   17   18 ar
  33   17   39 1
  34   18   19 ar
  35   18   21 1
  36   19   20 ar
  37   19   40 1
  38   20   41 1
  39   22   23 ar
  40   22   42 1
  41   23   24 ar
  42   23   43 1
  43   24   25 ar
  44   24   28 1
  45   25   26 ar
  46   25   44 1
  47   26   27 1

#	End of record

