#	Name: ASD01912921
#	Creating user name:	WinNT
#	Creation time:	15. 06. 2019 20:00

#	Modifying user name:	WinNT
#	Modification time:	15. 06. 2019 20:00

#	Program:	/corina/corina34_cracker 3.40 0067  02.08.2006

@<TRIPOS>MOLECULE
ASD01912921
  41   45    0    0    0
SMALL
NO_CHARGES


@<TRIPOS>ATOM
   1 C1            -0.0188     1.3595     0.1415 C.2     
   2 N2             0.0023    -0.0034    -0.0076 N.pl3   
   3 C3            -1.1992    -0.6831    -0.1351 C.2     
   4 C4            -2.3604    -0.0405    -0.1152 C.2     
   5 N5            -2.4355     1.3306     0.0325 N.am    
   6 C6            -1.3042     2.0582     0.1675 C.2     
   7 C7             1.2977     1.7698     0.2444 C.2     
   8 C8             2.0524     0.6020     0.1489 C.2     
   9 N9             1.2242    -0.4051     0.0017 N.2     
  10 O10           -1.3534     3.2684     0.2991 O.2     
  11 C11           -3.6813     1.9653     0.0473 C.2     
  12 C12            3.5556     0.5117     0.2048 C.3     
  13 O13            4.1055     1.8199     0.3730 O.3     
  14 C14            5.4593     1.9159     0.4429 C.ar    
  15 C15            6.0605     3.1555     0.6057 C.ar    
  16 C16            7.4369     3.2504     0.6764 C.ar    
  17 C17            8.2151     2.1113     0.5850 C.ar    
  18 C18            7.6184     0.8747     0.4223 C.ar    
  19 C19            6.2422     0.7738     0.3572 C.ar    
  20 C20           -4.3685     2.4234    -1.0346 C.2     
  21 N21           -4.4400     2.2370     1.1486 N.pl3   
  22 C22           -5.5810     2.8654     0.7064 C.2     
  23 N23           -5.5121     2.9647    -0.6130 N.2     
  24 N24           -4.2575     2.0004     2.5144 N.2     
  25 C25           -5.1623     2.3708     3.3807 C.2     
  26 C26           -6.3366     3.0127     2.9667 C.2     
  27 C27           -6.5514     3.2621     1.6451 C.2     
  28 H28           -1.1902    -1.7566    -0.2533 H       
  29 H29           -3.2742    -0.6069    -0.2180 H       
  30 H30            1.6627     2.7783     0.3711 H       
  31 H31            3.8509    -0.1172     1.0447 H       
  32 H32            3.9283     0.0774    -0.7229 H       
  33 H33            5.4530     4.0457     0.6768 H       
  34 H34            7.9054     4.2153     0.8028 H       
  35 H35            9.2910     2.1876     0.6405 H       
  36 H36            8.2285    -0.0136     0.3504 H       
  37 H37            5.7765    -0.1923     0.2300 H       
  38 H38           -4.0423     2.3595    -2.0622 H       
  39 H39           -5.0028     2.1791     4.4316 H       
  40 H40           -7.0735     3.3112     3.6977 H       
  41 H41           -7.4552     3.7569     1.3217 H       
@<TRIPOS>BOND
   1    1    2 1
   2    1    7 2
   3    1    6 1
   4    2    3 1
   5    2    9 1
   6    3    4 2
   7    3   28 1
   8    4    5 1
   9    4   29 1
  10    5    6 am
  11    5   11 1
  12    6   10 2
  13    7    8 1
  14    7   30 1
  15    8    9 2
  16    8   12 1
  17   11   21 1
  18   11   20 2
  19   12   13 1
  20   12   31 1
  21   12   32 1
  22   13   14 1
  23   14   15 ar
  24   14   19 ar
  25   15   16 ar
  26   15   33 1
  27   16   17 ar
  28   16   34 1
  29   17   18 ar
  30   17   35 1
  31   18   19 ar
  32   18   36 1
  33   19   37 1
  34   20   23 1
  35   20   38 1
  36   21   22 1
  37   21   24 1
  38   22   23 2
  39   22   27 1
  40   24   25 2
  41   25   26 1
  42   25   39 1
  43   26   27 2
  44   26   40 1
  45   27   41 1

#	End of record

