#	Name: ASD03091733
#	Creating user name:	WinNT
#	Creation time:	15. 06. 2019 20:31

#	Modifying user name:	WinNT
#	Modification time:	15. 06. 2019 20:31

#	Program:	/corina/corina34_cracker 3.40 0067  02.08.2006

@<TRIPOS>MOLECULE
ASD03091733
  33   35    0    0    0
SMALL
NO_CHARGES


@<TRIPOS>ATOM
   1 C1            -0.0188     1.5354     0.0105 C.3     
   2 C2             0.0021    -0.0041     0.0020 C.3     
   3 N3             0.0279    -0.4602     1.4021 N.3     
   4 C4             0.0781     0.7235     2.2834 C.3     
   5 C5            -0.5170     1.8802     1.4507 C.3     
   6 C6             0.2659     3.1734     1.7649 C.3     
   7 N7             1.5706     3.0168     1.1019 N.am    
   8 C8             1.4290     2.0576    -0.0005 C.3     
   9 C9             2.7084     3.6502     1.4495 C.2     
  10 O10            2.7100     4.4292     2.3855 O.2     
  11 C11            3.9028     3.4096     0.7257 C.2     
  12 C12            5.1356     3.9863     0.9705 C.2     
  13 O13            4.0438     2.5704    -0.3250 O.3     
  14 C14            5.3120     2.5996    -0.7546 C.2     
  15 C15            6.0202     3.4554     0.0104 C.2     
  16 O16            5.4340     4.8854     1.9419 O.3     
  17 C17            6.7849     5.3470     2.0057 C.3     
  18 H18           -0.6324     1.9593    -0.7844 H       
  19 H19           -0.8919    -0.3828    -0.4934 H       
  20 H20            0.8918    -0.3585    -0.5184 H       
  21 H21           -0.7764    -1.0325     1.6108 H       
  22 H22           -0.5221     0.5543     3.1774 H       
  23 H23            1.1093     0.9470     2.5570 H       
  24 H24           -1.5995     1.9734     1.5378 H       
  25 H25           -0.2598     4.0393     1.3624 H       
  26 H26            0.4006     3.2803     2.8412 H       
  27 H27            2.1216     1.2279     0.1411 H       
  28 H28            1.6353     2.5530    -0.9493 H       
  29 H29            5.7059     2.0264    -1.5808 H       
  30 H30            7.0694     3.6897    -0.0932 H       
  31 H31            6.8871     6.0595     2.8242 H       
  32 H32            7.4504     4.5007     2.1755 H       
  33 H33            7.0475     5.8330     1.0660 H       
@<TRIPOS>BOND
   1    1    2 1
   2    1    8 1
   3    1    5 1
   4    1   18 1
   5    2    3 1
   6    2   19 1
   7    2   20 1
   8    3    4 1
   9    3   21 1
  10    4    5 1
  11    4   22 1
  12    4   23 1
  13    5    6 1
  14    5   24 1
  15    6    7 1
  16    6   25 1
  17    6   26 1
  18    7    8 1
  19    7    9 am
  20    8   27 1
  21    8   28 1
  22    9   10 2
  23    9   11 1
  24   11   12 2
  25   11   13 1
  26   12   16 1
  27   12   15 1
  28   13   14 1
  29   14   15 2
  30   14   29 1
  31   15   30 1
  32   16   17 1
  33   17   31 1
  34   17   32 1
  35   17   33 1

#	End of record

