#	Name: ASD03430785
#	Creating user name:	WinNT
#	Creation time:	15. 06. 2019 20:41

#	Modifying user name:	WinNT
#	Modification time:	15. 06. 2019 20:41

#	Program:	/corina/corina34_cracker 3.40 0067  02.08.2006

@<TRIPOS>MOLECULE
ASD03430785
  35   39    0    0    0
SMALL
NO_CHARGES


@<TRIPOS>ATOM
   1 C1            -0.0168     1.3842     0.0097 C.ar    
   2 C2             0.0021    -0.0041     0.0020 C.ar    
   3 C3             1.2046    -0.6818    -0.0154 C.ar    
   4 C4             2.4098     0.0142    -0.0151 C.ar    
   5 C5             2.3860     1.4051    -0.0116 C.ar    
   6 C6             1.1808     2.0881     0.0020 C.ar    
   7 C7             1.5542    -2.1453    -0.0496 C.3     
   8 C8             3.0400    -2.1440    -0.4351 C.3     
   9 C9             0.4324    -3.8626     1.0057 C.ar    
  10 C10            1.3183    -2.8203     1.2688 C.ar    
  11 C11            0.7222    -2.9068    -1.0412 C.2     
  12 N12            0.1042    -3.8864    -0.3518 N.am    
  13 O13            0.6249    -2.6836    -2.2294 O.2     
  14 C14            1.7814    -2.6005     2.5464 C.ar    
  15 C15            1.3688    -3.4183     3.5837 C.ar    
  16 C16            0.4905    -4.4564     3.3339 C.ar    
  17 C17            0.0233    -4.6808     2.0553 C.ar    
  18 O18            3.4733    -0.8396    -0.0046 O.3     
  19 O19           -1.2118     2.0378     0.0189 O.3     
  20 C20           -1.1872     3.4187     0.3966 C.3     
  21 C21           -0.0352     4.1008    -0.3538 C.3     
  22 O22            1.1861     3.4498     0.0116 O.3     
  23 F23           -1.1597    -0.6936     0.0121 F       
  24 H24            3.3145     1.9568    -0.0188 H       
  25 H25            3.5790    -2.9266     0.0988 H       
  26 H26            3.1603    -2.2557    -1.5127 H       
  27 H27           -0.4984    -4.5327    -0.7519 H       
  28 H28            2.4678    -1.7893     2.7392 H       
  29 H29            1.7323    -3.2462     4.5860 H       
  30 H30            0.1688    -5.0948     4.1434 H       
  31 H31           -0.6627    -5.4937     1.8679 H       
  32 H32           -2.1320     3.8906     0.1269 H       
  33 H33           -1.0269     3.5031     1.4714 H       
  34 H34           -0.1919     4.0102    -1.4286 H       
  35 H35            0.0119     5.1538    -0.0761 H       
@<TRIPOS>BOND
   1    1    2 ar
   2    1    6 ar
   3    1   19 1
   4    2    3 ar
   5    2   23 1
   6    3    4 ar
   7    3    7 1
   8    4    5 ar
   9    4   18 1
  10    5    6 ar
  11    5   24 1
  12    6   22 1
  13    7    8 1
  14    7   10 1
  15    7   11 1
  16    8   18 1
  17    8   25 1
  18    8   26 1
  19    9   10 ar
  20    9   12 1
  21    9   17 ar
  22   10   14 ar
  23   11   12 am
  24   11   13 2
  25   12   27 1
  26   14   15 ar
  27   14   28 1
  28   15   16 ar
  29   15   29 1
  30   16   17 ar
  31   16   30 1
  32   17   31 1
  33   19   20 1
  34   20   21 1
  35   20   32 1
  36   20   33 1
  37   21   22 1
  38   21   34 1
  39   21   35 1

#	End of record

