#	Name: ASD07301070
#	Creating user name:	WinNT
#	Creation time:	15. 06. 2019 21:10

#	Modifying user name:	WinNT
#	Modification time:	15. 06. 2019 21:10

#	Program:	/corina/corina34_cracker 3.40 0067  02.08.2006

@<TRIPOS>MOLECULE
ASD07301070
  30   30    0    0    0
SMALL
NO_CHARGES


@<TRIPOS>ATOM
   1 C1            -0.1413     1.5013     0.0177 C.3     
   2 C2            -0.1146    -0.0054     0.0086 C.2     
   3 C3             0.0227    -0.7425     1.2655 C.2     
   4 C4             0.0486    -2.2057     1.2567 C.2     
   5 C5             1.3667    -2.9359     1.2353 C.3     
   6 O6            -0.2069    -0.6076    -1.0410 O.2     
   7 O7            -0.9914    -2.8311     1.2666 O.2     
   8 N8             0.1234    -0.0855     2.4105 N.2     
   9 N9             0.1405    -0.7328     3.5262 N.pl3   
  10 C10            0.1399    -0.0379     4.7360 C.ar    
  11 C11            0.1584    -0.7347     5.9415 C.ar    
  12 C12            0.1581    -0.0413     7.1376 C.ar    
  13 C13            0.1396     1.3417     7.1366 C.ar    
  14 C14            0.1212     2.0361     5.9409 C.ar    
  15 C15            0.1266     1.3514     4.7413 C.ar    
  16 C16            0.1389     2.0940     8.4424 C.3     
  17 F17            1.4575     2.3445     8.8370 F       
  18 F18           -0.5381     3.3076     8.2811 F       
  19 F19           -0.5034     1.3283     9.4214 F       
  20 F20            0.1760    -2.0856     5.9422 F       
  21 H21            0.8748     1.8833    -0.0808 H       
  22 H22           -0.7463     1.8590    -0.8154 H       
  23 H23           -0.5718     1.8514     0.9559 H       
  24 H24            2.1794    -2.2158     1.1394 H       
  25 H25            1.4862    -3.4973     2.1620 H       
  26 H26            1.3880    -3.6226     0.3891 H       
  27 H27            0.1539    -1.7027     3.5240 H       
  28 H28            0.1721    -0.5800     8.0735 H       
  29 H29            0.1064     3.1159     5.9449 H       
  30 H30            0.1167     1.8954     3.8084 H       
@<TRIPOS>BOND
   1    1    2 1
   2    1   21 1
   3    1   22 1
   4    1   23 1
   5    2    3 1
   6    2    6 2
   7    3    4 1
   8    3    8 2
   9    4    5 1
  10    4    7 2
  11    5   24 1
  12    5   25 1
  13    5   26 1
  14    8    9 1
  15    9   10 1
  16    9   27 1
  17   10   11 ar
  18   10   15 ar
  19   11   12 ar
  20   11   20 1
  21   12   13 ar
  22   12   28 1
  23   13   14 ar
  24   13   16 1
  25   14   15 ar
  26   14   29 1
  27   15   30 1
  28   16   17 1
  29   16   18 1
  30   16   19 1

#	End of record

