#	Name: ASD02160007
#	Creating user name:	WinNT
#	Creation time:	15. 06. 2019 20:18

#	Modifying user name:	WinNT
#	Modification time:	15. 06. 2019 20:18

#	Program:	/corina/corina34_cracker 3.40 0067  02.08.2006

@<TRIPOS>MOLECULE
ASD02160007
  61   63    0    0    0
SMALL
NO_CHARGES


@<TRIPOS>ATOM
   1 C1             0.0372     1.5786    -0.0094 C.3     
   2 C2            -0.0426     0.0784     0.0065 C.2     
   3 C3             1.0191    -0.6833    -0.3088 C.2     
   4 N4             2.2151    -0.1122    -0.6486 N.pl3   
   5 C5             2.4695     1.1951    -0.3352 C.2     
   6 C6             1.4685     2.0351    -0.0211 C.2     
   7 C7             0.8907    -2.1847    -0.2874 C.3     
   8 C8             3.8897     1.6992    -0.3414 C.3     
   9 C9             1.7691     3.3777     0.3060 C.2     
  10 O10            2.9239     3.7613     0.3006 O.2     
  11 O11            0.7753     4.2334     0.6241 O.3     
  12 C12            1.1515     5.5744     0.9438 C.3     
  13 C13           -0.0812     6.3777     1.2701 C.ar    
  14 C14           -0.6598     2.0995    -1.2398 C.ar    
  15 C15           -1.2609    -0.5458     0.3614 C.2     
  16 O16           -2.0786    -1.0247    -0.5995 O.3     
  17 O17           -1.5719    -0.6511     1.5331 O.2     
  18 C18           -3.2929    -1.6430    -0.1691 C.3     
  19 C19           -0.7630     7.0495     0.2730 C.ar    
  20 C20           -0.5488     6.4475     2.5733 C.ar    
  21 C21           -1.6867     7.1985     2.8268 C.ar    
  22 C22           -2.3122     7.8477     1.7795 C.ar    
  23 N23           -1.8420     7.7546     0.5509 N.ar    
  24 C24           -1.9382     3.0557    -3.4970 C.ar    
  25 C25           -0.8615     2.1980    -3.6235 C.ar    
  26 C26           -0.2222     1.7201    -2.4949 C.ar    
  27 C27           -1.7404     2.9523    -1.1131 C.ar    
  28 C28           -2.3797     3.4302    -2.2417 C.ar    
  29 N29           -2.6229     3.5674    -4.7054 N.pl3   
  30 O30           -2.2376     3.2327    -5.8114 O.2     
  31 O31           -3.5715     4.3231    -4.5939 O.2     
  32 C32           -4.1298    -0.6313     0.6164 C.3     
  33 C33           -4.0827    -2.1201    -1.3895 C.3     
  34 C34           -2.9663    -2.8396     0.7267 C.3     
  35 H35           -0.4583     1.9738     0.8774 H       
  36 H36            2.8858    -0.6366    -1.1134 H       
  37 H37            0.4854    -2.5283    -1.2391 H       
  38 H38            1.8723    -2.6311    -0.1280 H       
  39 H39            0.2215    -2.4806     0.5206 H       
  40 H40            4.5624     0.8867    -0.6160 H       
  41 H41            3.9845     2.5094    -1.0643 H       
  42 H42            4.1494     2.0660     0.6516 H       
  43 H43            1.8199     5.5689     1.8048 H       
  44 H44            1.6614     6.0219     0.0907 H       
  45 H45           -0.4077     6.9965    -0.7456 H       
  46 H46           -0.0393     5.9290     3.3720 H       
  47 H47           -2.0793     7.2747     3.8300 H       
  48 H48           -3.1988     8.4346     1.9687 H       
  49 H49           -0.5166     1.9054    -4.6042 H       
  50 H50            0.6195     1.0507    -2.5938 H       
  51 H51           -2.0853     3.2449    -0.1324 H       
  52 H52           -3.2209     4.1003    -2.1428 H       
  53 H53           -4.3625     0.2211    -0.0218 H       
  54 H54           -5.0560    -1.1030     0.9447 H       
  55 H55           -3.5671    -0.2914     1.4859 H       
  56 H56           -3.4865    -2.8408    -1.9491 H       
  57 H57           -5.0089    -2.5917    -1.0612 H       
  58 H58           -4.3154    -1.2676    -2.0277 H       
  59 H59           -2.4036    -2.4997     1.5961 H       
  60 H60           -3.8925    -3.3112     1.0550 H       
  61 H61           -2.3700    -3.5603     0.1671 H       
@<TRIPOS>BOND
   1    1    2 1
   2    1    6 1
   3    1   14 1
   4    1   35 1
   5    2    3 2
   6    2   15 1
   7    3    4 1
   8    3    7 1
   9    4    5 1
  10    4   36 1
  11    5    6 2
  12    5    8 1
  13    6    9 1
  14    7   37 1
  15    7   38 1
  16    7   39 1
  17    8   40 1
  18    8   41 1
  19    8   42 1
  20    9   10 2
  21    9   11 1
  22   11   12 1
  23   12   13 1
  24   12   43 1
  25   12   44 1
  26   13   20 ar
  27   13   19 ar
  28   14   27 ar
  29   14   26 ar
  30   15   16 1
  31   15   17 2
  32   16   18 1
  33   18   32 1
  34   18   33 1
  35   18   34 1
  36   19   23 ar
  37   19   45 1
  38   20   21 ar
  39   20   46 1
  40   21   22 ar
  41   21   47 1
  42   22   23 ar
  43   22   48 1
  44   24   25 ar
  45   24   28 ar
  46   24   29 1
  47   25   26 ar
  48   25   49 1
  49   26   50 1
  50   27   28 ar
  51   27   51 1
  52   28   52 1
  53   29   30 2
  54   29   31 2
  55   32   53 1
  56   32   54 1
  57   32   55 1
  58   33   56 1
  59   33   57 1
  60   33   58 1
  61   34   59 1
  62   34   60 1
  63   34   61 1

#	End of record

