#	Name: ASD01882251
#	Creating user name:	WinNT
#	Creation time:	15. 06. 2019 19:44

#	Modifying user name:	WinNT
#	Modification time:	15. 06. 2019 19:44

#	Program:	/corina/corina34_cracker 3.40 0067  02.08.2006

@<TRIPOS>MOLECULE
ASD01882251
  21   22    0    0    0
SMALL
NO_CHARGES


@<TRIPOS>ATOM
   1 O1            -0.0173     1.4248     0.0099 O.3     
   2 C2             0.0021    -0.0041     0.0020 C.3     
   3 C3             1.2831     0.8325    -0.0057 C.3     
   4 C4            -0.3680    -0.7292     1.2974 C.3     
   5 O5            -1.5561    -1.4961     1.0913 O.3     
   6 C6            -2.0239    -2.2064     2.1518 C.ar    
   7 C7            -3.1727    -2.9727     2.0216 C.ar    
   8 C8            -3.6468    -3.6944     3.1000 C.ar    
   9 C9            -2.9760    -3.6527     4.3105 C.ar    
  10 C10           -1.8292    -2.8882     4.4418 C.ar    
  11 C11           -1.3497    -2.1701     3.3634 C.ar    
  12 F12           -3.4412    -4.3583     5.3645 F       
  13 H13           -0.2792    -0.5108    -0.9211 H       
  14 H14            1.8523     0.8812    -0.9340 H       
  15 H15            1.8699     0.8713     0.9120 H       
  16 H16            0.4467    -1.3924     1.5881 H       
  17 H17           -0.5402     0.0024     2.0869 H       
  18 H18           -3.6966    -3.0049     1.0777 H       
  19 H19           -4.5413    -4.2912     2.9989 H       
  20 H20           -1.3071    -2.8563     5.3867 H       
  21 H21           -0.4526    -1.5774     3.4649 H       
@<TRIPOS>BOND
   1    1    2 1
   2    1    3 1
   3    2    3 1
   4    2    4 1
   5    2   13 1
   6    3   14 1
   7    3   15 1
   8    4    5 1
   9    4   16 1
  10    4   17 1
  11    5    6 1
  12    6    7 ar
  13    6   11 ar
  14    7    8 ar
  15    7   18 1
  16    8    9 ar
  17    8   19 1
  18    9   10 ar
  19    9   12 1
  20   10   11 ar
  21   10   20 1
  22   11   21 1

#	End of record

