#	Name: ASD09116060
#	Creating user name:	WinNT
#	Creation time:	15. 06. 2019 21:20

#	Modifying user name:	WinNT
#	Modification time:	15. 06. 2019 21:20

#	Program:	/corina/corina34_cracker 3.40 0067  02.08.2006

@<TRIPOS>MOLECULE
ASD09116060
  66   70    0    0    0
SMALL
NO_CHARGES


@<TRIPOS>ATOM
   1 C1            -0.3057     1.3634    -0.9142 C.ar    
   2 N2            -0.2275    -0.0177    -0.7548 N.pl3   
   3 N3            -1.2677    -0.8819    -0.3763 N.2     
   4 C4            -0.7681    -2.0937    -0.3476 C.2     
   5 N5             0.5257    -2.0434    -0.6859 N.2     
   6 C6             0.8698    -0.7993    -0.9405 C.2     
   7 N7             2.1244    -0.3634    -1.3203 N.pl3   
   8 N8            -1.4725    -3.2509    -0.0165 N.pl3   
   9 N9             0.7773     2.0317    -1.2787 N.ar    
  10 N10           -1.4654     1.9732    -0.7016 N.ar    
  11 C11           -1.5599     3.2770    -0.8450 C.ar    
  12 C12           -0.4461     4.0098    -1.2329 C.ar    
  13 C13            0.7447     3.3462    -1.4477 C.ar    
  14 C14           -2.8331     4.0368    -0.5879 C.3     
  15 C15           -3.5969     4.3061    -1.8449 C.3     
  16 C16           -3.1336     5.4405    -2.7376 C.3     
  17 C17           -1.8723     5.0288    -3.5186 C.3     
  18 C18           -0.6674     5.8025    -2.9142 C.3     
  19 C19           -0.5840     5.4944    -1.4200 C.3     
  20 C20           -0.8561    -4.5030    -0.1317 C.ar    
  21 C21           -1.2264    -5.5398     0.7148 C.ar    
  22 C22           -0.6186    -6.7743     0.6012 C.ar    
  23 C23            0.3634    -6.9791    -0.3592 C.ar    
  24 C24            0.7341    -5.9422    -1.2054 C.ar    
  25 C25            0.1216    -4.7095    -1.0962 C.ar    
  26 N26            0.9799    -8.2305    -0.4740 N.3     
  27 C27            0.0190    -9.3186    -0.2161 C.3     
  28 C28            0.0182   -10.2322    -1.4598 C.3     
  29 C29            1.3913    -9.9305    -2.1159 C.3     
  30 C30            1.5516    -8.4175    -1.8245 C.3     
  31 N31           -0.0703   -11.6448    -1.0665 N.3     
  32 C32           -1.3516   -11.9281    -0.4062 C.3     
  33 C33            0.1321   -12.5270    -2.2235 C.3     
  34 H34            2.8493    -1.0002    -1.4205 H       
  35 H35            2.2805     0.5793    -1.4867 H       
  36 H36           -2.3895    -3.1884     0.2935 H       
  37 H37            1.6318     3.8866    -1.7431 H       
  38 H38           -3.4602     3.4567     0.0892 H       
  39 H39           -2.5879     4.9867    -0.1129 H       
  40 H40           -3.5887     3.3925    -2.4394 H       
  41 H41           -4.6320     4.5050    -1.5671 H       
  42 H42           -3.9270     5.6926    -3.4412 H       
  43 H43           -2.9090     6.3131    -2.1243 H       
  44 H44           -1.7098     3.9556    -3.4185 H       
  45 H45           -1.9881     5.2890    -4.5707 H       
  46 H46            0.2532     5.4857    -3.4045 H       
  47 H47           -0.8110     6.8732    -3.0591 H       
  48 H48           -1.4909     5.8417    -0.9250 H       
  49 H49            0.2826     5.9980    -0.9917 H       
  50 H50           -1.9896    -5.3803     1.4621 H       
  51 H51           -0.9065    -7.5806     1.2595 H       
  52 H52            1.4983    -6.1013    -1.9518 H       
  53 H53            0.4095    -3.9033    -1.7545 H       
  54 H54            0.3287    -9.8866     0.6611 H       
  55 H55           -0.9770    -8.9043    -0.0597 H       
  56 H56           -0.7971    -9.9665    -2.1326 H       
  57 H57            2.1859   -10.5059    -1.6409 H       
  58 H58            1.3616   -10.1205    -3.1888 H       
  59 H59            0.9974    -7.8294    -2.5560 H       
  60 H60            2.6055    -8.1392    -1.8324 H       
  61 H61           -2.1702   -11.7037    -1.0901 H       
  62 H62           -1.3908   -12.9806    -0.1255 H       
  63 H63           -1.4446   -11.3102     0.4869 H       
  64 H64            1.1504   -12.4115    -2.5947 H       
  65 H65           -0.0301   -13.5624    -1.9237 H       
  66 H66           -0.5739   -12.2618    -3.0105 H       
@<TRIPOS>BOND
   1    1    2 1
   2    1    9 ar
   3    1   10 ar
   4    2    3 1
   5    2    6 1
   6    3    4 2
   7    4    5 1
   8    4    8 1
   9    5    6 2
  10    6    7 1
  11    7   34 1
  12    7   35 1
  13    8   20 1
  14    8   36 1
  15    9   13 ar
  16   10   11 ar
  17   11   12 ar
  18   11   14 1
  19   12   13 ar
  20   12   19 1
  21   13   37 1
  22   14   15 1
  23   14   38 1
  24   14   39 1
  25   15   16 1
  26   15   40 1
  27   15   41 1
  28   16   17 1
  29   16   42 1
  30   16   43 1
  31   17   18 1
  32   17   44 1
  33   17   45 1
  34   18   19 1
  35   18   46 1
  36   18   47 1
  37   19   48 1
  38   19   49 1
  39   20   21 ar
  40   20   25 ar
  41   21   22 ar
  42   21   50 1
  43   22   23 ar
  44   22   51 1
  45   23   24 ar
  46   23   26 1
  47   24   25 ar
  48   24   52 1
  49   25   53 1
  50   26   27 1
  51   26   30 1
  52   27   28 1
  53   27   54 1
  54   27   55 1
  55   28   29 1
  56   28   31 1
  57   28   56 1
  58   29   30 1
  59   29   57 1
  60   29   58 1
  61   30   59 1
  62   30   60 1
  63   31   32 1
  64   31   33 1
  65   32   61 1
  66   32   62 1
  67   32   63 1
  68   33   64 1
  69   33   65 1
  70   33   66 1

#	End of record

