#	Name: ASD03430024
#	Creating user name:	WinNT
#	Creation time:	15. 06. 2019 20:40

#	Modifying user name:	WinNT
#	Modification time:	15. 06. 2019 20:40

#	Program:	/corina/corina34_cracker 3.40 0067  02.08.2006

@<TRIPOS>MOLECULE
ASD03430024
  70   77    0    0    0
SMALL
NO_CHARGES


@<TRIPOS>ATOM
   1 C1             0.5190     0.6684    -0.0801 C.ar    
   2 C2             0.4080    -0.7126    -0.1319 C.ar    
   3 C3             1.5397    -1.4980    -0.1946 C.ar    
   4 C4             2.8049    -0.9185    -0.1971 C.ar    
   5 C5             2.9125     0.4678    -0.1497 C.ar    
   6 C6             1.7775     1.2586    -0.0897 C.ar    
   7 O7             3.7833    -1.8680    -0.2349 O.3     
   8 C8             1.7493    -2.9860    -0.2808 C.3     
   9 C9             3.2215    -3.1113    -0.6967 C.3     
  10 C10            0.4900    -4.6239     0.7452 C.ar    
  11 C11            1.4744    -3.6778     1.0213 C.ar    
  12 C12            0.8317    -3.6341    -1.2775 C.2     
  13 N13            0.1368    -4.5735    -0.6054 N.am    
  14 O14            0.7349    -3.3650    -2.4562 O.2     
  15 C15            1.9788    -3.5430     2.2950 C.ar    
  16 C16            1.5095    -4.3514     3.3156 C.ar    
  17 C17            0.5332    -5.2945     3.0528 C.ar    
  18 C18            0.0242    -5.4333     1.7779 C.ar    
  19 C19           -0.8712    -5.4410    -1.2200 C.3     
  20 O20           -0.6089     1.4294    -0.0260 O.3     
  21 O21            1.9101     2.6128    -0.0369 O.3     
  22 C22           -2.2381    -4.8357    -1.0298 C.ar    
  23 N23           -2.8955    -5.0559     0.0903 N.ar    
  24 C24           -4.1040    -4.5414     0.3010 C.ar    
  25 C25           -4.7147    -3.7449    -0.6726 C.ar    
  26 C26           -4.0440    -3.4998    -1.8565 C.ar    
  27 C27           -2.7821    -4.0525    -2.0312 C.ar    
  28 C28           -0.4486     2.7879     0.3970 C.3     
  29 C29            0.7480     3.3863    -0.3543 C.3     
  30 N30           -4.7518    -4.7928     1.4740 N.2     
  31 C31           -5.6320    -5.7653     1.5428 C.2     
  32 C32           -6.4433    -5.9428     2.7658 C.ar    
  33 C33           -5.8114    -6.6824     0.3972 C.ar    
  34 C34           -4.7081    -7.3306    -0.1616 C.ar    
  35 C35           -4.8827    -8.1853    -1.2301 C.ar    
  36 C36           -6.1475    -8.4010    -1.7481 C.ar    
  37 C37           -7.2452    -7.7619    -1.1991 C.ar    
  38 C38           -7.0856    -6.9087    -0.1271 C.ar    
  39 C39           -6.3810    -4.9979     3.7920 C.ar    
  40 C40           -7.1410    -5.1694     4.9302 C.ar    
  41 C41           -7.9639    -6.2748     5.0565 C.ar    
  42 C42           -8.0305    -7.2150     4.0433 C.ar    
  43 C43           -7.2798    -7.0530     2.8975 C.ar    
  44 H44           -0.5680    -1.1748    -0.1228 H       
  45 H45            3.8884     0.9304    -0.1592 H       
  46 H46            3.3118    -3.1983    -1.7795 H       
  47 H47            3.6937    -3.9581    -0.1986 H       
  48 H48            2.7416    -2.8060     2.4980 H       
  49 H49            1.9051    -4.2460     4.3150 H       
  50 H50            0.1676    -5.9258     3.8491 H       
  51 H51           -0.7385    -6.1720     1.5805 H       
  52 H52           -0.6633    -5.5414    -2.2853 H       
  53 H53           -0.8403    -6.4237    -0.7496 H       
  54 H54           -5.6961    -3.3276    -0.5023 H       
  55 H55           -4.4902    -2.8885    -2.6270 H       
  56 H56           -2.2334    -3.8786    -2.9451 H       
  57 H57           -1.3499     3.3545     0.1633 H       
  58 H58           -0.2620     2.8192     1.4705 H       
  59 H59            0.8978     4.4200    -0.0429 H       
  60 H60            0.5642     3.3482    -1.4280 H       
  61 H61           -3.7203    -7.1628     0.2416 H       
  62 H62           -4.0301    -8.6871    -1.6635 H       
  63 H63           -6.2786    -9.0710    -2.5850 H       
  64 H64           -8.2297    -7.9347    -1.6082 H       
  65 H65           -7.9431    -6.4107     0.3008 H       
  66 H66           -5.7389    -4.1350     3.6948 H       
  67 H67           -7.0935    -4.4396     5.7248 H       
  68 H68           -8.5566    -6.4044     5.9499 H       
  69 H69           -8.6747    -8.0753     4.1483 H       
  70 H70           -7.3329    -7.7874     2.1073 H       
@<TRIPOS>BOND
   1    1    2 ar
   2    1    6 ar
   3    1   20 1
   4    2    3 ar
   5    2   44 1
   6    3    4 ar
   7    3    8 1
   8    4    5 ar
   9    4    7 1
  10    5    6 ar
  11    5   45 1
  12    6   21 1
  13    7    9 1
  14    8    9 1
  15    8   11 1
  16    8   12 1
  17    9   46 1
  18    9   47 1
  19   10   11 ar
  20   10   13 1
  21   10   18 ar
  22   11   15 ar
  23   12   13 am
  24   12   14 2
  25   13   19 1
  26   15   16 ar
  27   15   48 1
  28   16   17 ar
  29   16   49 1
  30   17   18 ar
  31   17   50 1
  32   18   51 1
  33   19   22 1
  34   19   52 1
  35   19   53 1
  36   20   28 1
  37   21   29 1
  38   22   23 ar
  39   22   27 ar
  40   23   24 ar
  41   24   25 ar
  42   24   30 1
  43   25   26 ar
  44   25   54 1
  45   26   27 ar
  46   26   55 1
  47   27   56 1
  48   28   29 1
  49   28   57 1
  50   28   58 1
  51   29   59 1
  52   29   60 1
  53   30   31 2
  54   31   32 1
  55   31   33 1
  56   32   39 ar
  57   32   43 ar
  58   33   34 ar
  59   33   38 ar
  60   34   35 ar
  61   34   61 1
  62   35   36 ar
  63   35   62 1
  64   36   37 ar
  65   36   63 1
  66   37   38 ar
  67   37   64 1
  68   38   65 1
  69   39   40 ar
  70   39   66 1
  71   40   41 ar
  72   40   67 1
  73   41   42 ar
  74   41   68 1
  75   42   43 ar
  76   42   69 1
  77   43   70 1

#	End of record

