#	Name: ASD00170761
#	Creating user name:	WinNT
#	Creation time:	15. 06. 2019 18:32

#	Modifying user name:	WinNT
#	Modification time:	15. 06. 2019 18:32

#	Program:	/corina/corina34_cracker 3.40 0067  02.08.2006

@<TRIPOS>MOLECULE
ASD00170761
  48   50    0    0    0
SMALL
NO_CHARGES


@<TRIPOS>ATOM
   1 C1             4.8415     1.4334    -3.5091 C.ar    
   2 C2             4.8624     0.0483    -3.5029 C.ar    
   3 C3             4.4918    -0.6506    -2.3658 C.ar    
   4 C4             4.0995     0.0295    -1.2323 C.ar    
   5 C5             4.0763     1.4259    -1.2323 C.ar    
   6 C6             4.4511     2.1248    -2.3819 C.ar    
   7 Cl7            5.3545    -0.8151    -4.9263 Cl      
   8 C8             3.6564     2.1609    -0.0209 C.2     
   9 C9             3.7469     3.6284     0.0172 C.2     
  10 O10            3.2359     1.5522     0.9448 O.2     
  11 C11            2.6673     4.4394    -0.0998 C.2     
  12 S12            3.1288     6.0742    -0.0089 S.3     
  13 C13            4.8285     5.6691     0.2007 C.2     
  14 C14            5.0036     4.3429     0.1902 C.2     
  15 C15            5.9212     6.6977     0.3948 C.3     
  16 C16            7.1098     6.3842    -0.5128 C.3     
  17 N17            7.9683     5.4232     0.1814 N.am    
  18 C18            7.3420     4.4462     1.0832 C.3     
  19 C19            6.3340     3.6183     0.2982 C.3     
  20 C20            9.3034     5.4338    -0.0026 C.2     
  21 O21            9.8614     6.3352    -0.8326 O.3     
  22 O22           10.0035     4.6299     0.5805 O.2     
  23 C23           11.3049     6.2882    -0.9825 C.3     
  24 C24           11.7169     4.9186    -1.5260 C.3     
  25 C25           11.7522     7.3793    -1.9573 C.3     
  26 C26           11.9666     6.5171     0.3779 C.3     
  27 H27            5.1358     1.9729    -4.3972 H       
  28 H28            4.5098    -1.7305    -2.3671 H       
  29 H29            3.8105    -0.5165    -0.3465 H       
  30 H30            4.4351     3.2047    -2.3879 H       
  31 H31            1.6525     4.0948    -0.2332 H       
  32 H32            5.5329     7.6869     0.1524 H       
  33 H33            6.2479     6.6855     1.4346 H       
  34 H34            6.7549     5.9523    -1.4485 H       
  35 H35            7.6687     7.2975    -0.7165 H       
  36 H36            8.1069     3.7903     1.4990 H       
  37 H37            6.8294     4.9701     1.8900 H       
  38 H38            6.1848     2.6632     0.8018 H       
  39 H39            6.7218     3.4375    -0.7043 H       
  40 H40           11.2454     4.7555    -2.4952 H       
  41 H41           12.8005     4.8833    -1.6385 H       
  42 H42           11.3982     4.1412    -0.8316 H       
  43 H43           11.4587     8.3550    -1.5701 H       
  44 H44           12.8358     7.3440    -2.0698 H       
  45 H45           11.2808     7.2162    -2.9264 H       
  46 H46           11.6479     5.7397     1.0723 H       
  47 H47           13.0502     6.4818     0.2654 H       
  48 H48           11.6731     7.4928     0.7651 H       
@<TRIPOS>BOND
   1    1    2 ar
   2    1    6 ar
   3    1   27 1
   4    2    3 ar
   5    2    7 1
   6    3    4 ar
   7    3   28 1
   8    4    5 ar
   9    4   29 1
  10    5    6 ar
  11    5    8 1
  12    6   30 1
  13    8    9 1
  14    8   10 2
  15    9   11 2
  16    9   14 1
  17   11   12 1
  18   11   31 1
  19   12   13 1
  20   13   14 2
  21   13   15 1
  22   14   19 1
  23   15   16 1
  24   15   32 1
  25   15   33 1
  26   16   17 1
  27   16   34 1
  28   16   35 1
  29   17   18 1
  30   17   20 am
  31   18   19 1
  32   18   36 1
  33   18   37 1
  34   19   38 1
  35   19   39 1
  36   20   21 1
  37   20   22 2
  38   21   23 1
  39   23   24 1
  40   23   25 1
  41   23   26 1
  42   24   40 1
  43   24   41 1
  44   24   42 1
  45   25   43 1
  46   25   44 1
  47   25   45 1
  48   26   46 1
  49   26   47 1
  50   26   48 1

#	End of record

