#	Name: ASD01680091
#	Creating user name:	WinNT
#	Creation time:	15. 06. 2019 19:22

#	Modifying user name:	WinNT
#	Modification time:	15. 06. 2019 19:22

#	Program:	/corina/corina34_cracker 3.40 0067  02.08.2006

@<TRIPOS>MOLECULE
ASD01680091
  86   88    0    0    0
SMALL
NO_CHARGES


@<TRIPOS>ATOM
   1 C1            -0.9332     1.3702    -0.3540 C.2     
   2 C2            -0.8554    -0.1347    -0.3682 C.3     
   3 C3            -1.5525    -0.6697    -1.6207 C.3     
   4 O4             0.0806     2.0275    -0.3504 O.2     
   5 O5            -2.1287     1.9804    -0.3509 O.3     
   6 N6             0.5492    -0.5511    -0.3756 N.am    
   7 S7             1.3111    -0.9195     1.0479 S.o2    
   8 O8             2.6325    -1.3140     0.7052 O.2     
   9 O9             1.0257     0.1464     1.9433 O.2     
  10 C10            0.5203    -2.3491     1.7079 C.ar    
  11 C11           -0.4425    -2.2146     2.6907 C.ar    
  12 C12           -1.0628    -3.3362     3.2086 C.ar    
  13 C13           -0.7207    -4.5921     2.7433 C.ar    
  14 C14            0.2415    -4.7265     1.7599 C.ar    
  15 C15            0.8587    -3.6046     1.2390 C.ar    
  16 C16            1.9039    -3.7507     0.1632 C.3     
  17 C17           -1.3962    -5.8149     3.3086 C.3     
  18 C18           -0.8154    -0.8454     3.1979 C.3     
  19 N19           -1.3740    -2.1218    -1.6963 N.am    
  20 C20           -1.9063    -2.8136    -2.7233 C.2     
  21 O21           -2.5329    -2.2339    -3.5848 O.2     
  22 C22           -1.7227    -4.3073    -2.8011 C.3     
  23 O23           -2.3738    -4.8070    -3.9709 O.3     
  24 N24           -4.5480    -6.8566    -4.4596 N.am    
  25 C25           -3.4515    -6.9577    -3.4794 C.3     
  26 C26           -2.2596    -6.2213    -4.1404 C.3     
  27 C27           -2.4352    -6.6189    -5.6299 C.3     
  28 C28           -3.9686    -6.6644    -5.7970 C.3     
  29 C29           -4.3586    -7.8319    -6.7058 C.3     
  30 N30           -3.8629    -7.5822    -8.0615 N.pl3   
  31 C31           -4.0072    -8.5544    -9.0444 C.ar    
  32 C32           -4.6233    -9.7627    -8.7338 C.ar    
  33 C33           -4.7602   -10.7212    -9.7213 C.ar    
  34 C34           -4.2746   -10.4384   -10.9914 C.ar    
  35 C35           -3.6741    -9.2187   -11.2295 C.ar    
  36 N36           -3.5620    -8.3205   -10.2691 N.ar    
  37 C37           -5.8636    -6.9336    -4.1771 C.2     
  38 C38           -6.3221    -7.0364    -2.7452 C.3     
  39 C39           -7.8498    -7.1095    -2.7029 C.3     
  40 C40           -8.3212    -7.0882    -1.2475 C.3     
  41 C41           -9.8489    -7.1613    -1.2051 C.3     
  42 O42           -6.6785    -6.9201    -5.0753 O.2     
  43 C43           -5.7334    -8.2979    -2.1105 C.3     
  44 H44           -1.3476    -0.5324     0.5194 H       
  45 H45           -2.6161    -0.4364    -1.5722 H       
  46 H46           -1.1183    -0.2037    -2.5052 H       
  47 H47           -2.1281     2.9474    -0.3417 H       
  48 H48            1.0329    -0.6109    -1.2142 H       
  49 H49           -1.8145    -3.2312     3.9769 H       
  50 H50            0.5090    -5.7077     1.3967 H       
  51 H51            2.8951    -3.7451     0.6165 H       
  52 H52            1.7517    -4.6915    -0.3659 H       
  53 H53            1.8208    -2.9214    -0.5392 H       
  54 H54           -2.2876    -6.0408     2.7233 H       
  55 H55           -0.7102    -6.6609     3.2671 H       
  56 H56           -1.6796    -5.6273     4.3443 H       
  57 H57           -1.4034    -0.3255     2.4416 H       
  58 H58           -1.4030    -0.9437     4.1107 H       
  59 H59            0.0903    -0.2767     3.4083 H       
  60 H60           -0.8728    -2.5854    -1.0073 H       
  61 H61           -0.6591    -4.5407    -2.8496 H       
  62 H62           -2.1569    -4.7733    -1.9166 H       
  63 H63           -3.7301    -6.4675    -2.5466 H       
  64 H64           -3.1989    -8.0026    -3.2991 H       
  65 H65           -1.3098    -6.5843    -3.7478 H       
  66 H66           -1.9981    -5.8648    -6.2844 H       
  67 H67           -1.9971    -7.5984    -5.8217 H       
  68 H68           -4.3231    -5.7258    -6.2232 H       
  69 H69           -3.9196    -8.7530    -6.3224 H       
  70 H70           -5.4441    -7.9284    -6.7278 H       
  71 H71           -3.4341    -6.7383    -8.2734 H       
  72 H72           -4.9893    -9.9497    -7.7351 H       
  73 H73           -5.2338   -11.6684    -9.5095 H       
  74 H74           -4.3656   -11.1657   -11.7846 H       
  75 H75           -3.2951    -8.9946   -12.2157 H       
  76 H76           -5.9848    -6.1599    -2.1919 H       
  77 H77           -8.2693    -6.2546    -3.2332 H       
  78 H78           -8.1827    -8.0316    -3.1792 H       
  79 H79           -7.9017    -7.9430    -0.7171 H       
  80 H80           -7.9883    -6.1660    -0.7712 H       
  81 H81          -10.2684    -6.3064    -1.7355 H       
  82 H82          -10.1819    -8.0834    -1.6814 H       
  83 H83          -10.1848    -7.1461    -0.1683 H       
  84 H84           -6.0650    -8.3723    -1.0749 H       
  85 H85           -6.0707    -9.1744    -2.6638 H       
  86 H86           -4.6450    -8.2458    -2.1407 H       
@<TRIPOS>BOND
   1    1    2 1
   2    1    4 2
   3    1    5 1
   4    2    3 1
   5    2    6 1
   6    2   44 1
   7    3   19 1
   8    3   45 1
   9    3   46 1
  10    5   47 1
  11    6    7 am
  12    6   48 1
  13    7    8 2
  14    7    9 2
  15    7   10 1
  16   10   11 ar
  17   10   15 ar
  18   11   12 ar
  19   11   18 1
  20   12   13 ar
  21   12   49 1
  22   13   14 ar
  23   13   17 1
  24   14   15 ar
  25   14   50 1
  26   15   16 1
  27   16   51 1
  28   16   52 1
  29   16   53 1
  30   17   54 1
  31   17   55 1
  32   17   56 1
  33   18   57 1
  34   18   58 1
  35   18   59 1
  36   19   20 am
  37   19   60 1
  38   20   21 2
  39   20   22 1
  40   22   23 1
  41   22   61 1
  42   22   62 1
  43   23   26 1
  44   24   25 1
  45   24   28 1
  46   24   37 am
  47   25   26 1
  48   25   63 1
  49   25   64 1
  50   26   27 1
  51   26   65 1
  52   27   28 1
  53   27   66 1
  54   27   67 1
  55   28   29 1
  56   28   68 1
  57   29   30 1
  58   29   69 1
  59   29   70 1
  60   30   31 1
  61   30   71 1
  62   31   32 ar
  63   31   36 ar
  64   32   33 ar
  65   32   72 1
  66   33   34 ar
  67   33   73 1
  68   34   35 ar
  69   34   74 1
  70   35   36 ar
  71   35   75 1
  72   37   38 1
  73   37   42 2
  74   38   39 1
  75   38   43 1
  76   38   76 1
  77   39   40 1
  78   39   77 1
  79   39   78 1
  80   40   41 1
  81   40   79 1
  82   40   80 1
  83   41   81 1
  84   41   82 1
  85   41   83 1
  86   43   84 1
  87   43   85 1
  88   43   86 1

#	End of record

