#	Name: ASD02030503
#	Creating user name:	WinNT
#	Creation time:	15. 06. 2019 20:15

#	Modifying user name:	WinNT
#	Modification time:	15. 06. 2019 20:15

#	Program:	/corina/corina34_cracker 3.40 0067  02.08.2006

@<TRIPOS>MOLECULE
ASD02030503
  56   60    0    0    0
SMALL
NO_CHARGES


@<TRIPOS>ATOM
   1 N1            -0.5996     1.4334     0.2471 N.am    
   2 C2            -0.0713     0.0687     0.3819 C.3     
   3 C3            -0.8199    -0.6366     1.5196 C.3     
   4 N4            -2.2638    -0.4529     1.3164 N.am    
   5 C5            -2.7922     0.9118     1.1816 C.3     
   6 C6            -2.0443     1.6173     0.0495 C.3     
   7 C7             0.2251     2.4975     0.3092 C.2     
   8 C8             1.6549     2.3066     0.6331 C.2     
   9 N9             2.5359     3.2619     0.8386 N.2     
  10 N10            2.2832     1.1252     0.7756 N.2     
  11 C11            3.5346     1.3819     1.0598 C.2     
  12 N12            3.6776     2.7227     1.0959 N.pl3   
  13 O13           -0.2066     3.6143     0.0989 O.2     
  14 C14           -3.0886    -1.5170     1.2542 C.2     
  15 C15           -4.5478    -1.3156     1.1778 C.2     
  16 O16           -2.6298    -2.6431     1.2612 O.2     
  17 C17           -2.3801     3.1099     0.0641 C.3     
  18 C18           -2.4529     1.0086    -1.2934 C.3     
  19 C19            4.8669     3.4127     1.3669 C.ar    
  20 C20            4.8795     4.8007     1.3736 C.ar    
  21 C21            6.0543     5.4784     1.6418 C.ar    
  22 C22            7.2163     4.7739     1.9029 C.ar    
  23 C23            7.2058     3.3911     1.8967 C.ar    
  24 C24            6.0338     2.7090     1.6350 C.ar    
  25 Cl25           6.0718     7.2143     1.6506 Cl      
  26 C26           -5.4588    -2.1526     0.5649 C.2     
  27 N27           -6.6959    -1.6282     0.7083 N.pl3   
  28 C28           -6.6016    -0.4471     1.4147 C.2     
  29 C29           -5.2735    -0.2342     1.7231 C.2     
  30 C30           -7.9245    -2.0736     0.2827 C.2     
  31 C31           -9.0404    -1.3699     0.5467 C.2     
  32 C32           -8.9717    -0.1608     1.2655 C.2     
  33 C33           -7.7694     0.2980     1.6975 C.2     
  34 H34           -0.2240    -0.4764    -0.5496 H       
  35 H35            0.9928     0.1096     0.6143 H       
  36 H36           -0.5816    -1.7002     1.5103 H       
  37 H37           -0.5268    -0.2018     2.4751 H       
  38 H38           -3.8563     0.8708     0.9491 H       
  39 H39           -2.6394     1.4569     2.1131 H       
  40 H40            4.3112     0.6526     1.2366 H       
  41 H41           -1.9908     3.5610     0.9768 H       
  42 H42           -1.9271     3.5928    -0.8018 H       
  43 H43           -3.4618     3.2393     0.0277 H       
  44 H44           -3.5264     1.1319    -1.4366 H       
  45 H45           -1.9186     1.5130    -2.0986 H       
  46 H46           -2.2048    -0.0527    -1.3018 H       
  47 H47            3.9727     5.3506     1.1692 H       
  48 H48            8.1333     5.3050     2.1115 H       
  49 H49            8.1143     2.8439     2.1005 H       
  50 H50            6.0266     1.6290     1.6308 H       
  51 H51           -5.2217    -3.0743     0.0544 H       
  52 H52           -4.8663     0.6030     2.2708 H       
  53 H53           -7.9949    -2.9987    -0.2701 H       
  54 H54           -9.9972    -1.7352     0.2040 H       
  55 H55           -9.8720     0.3984     1.4731 H       
  56 H56           -7.7054     1.2239     2.2496 H       
@<TRIPOS>BOND
   1    1    2 1
   2    1    7 am
   3    1    6 1
   4    2    3 1
   5    2   34 1
   6    2   35 1
   7    3    4 1
   8    3   36 1
   9    3   37 1
  10    4    5 1
  11    4   14 am
  12    5    6 1
  13    5   38 1
  14    5   39 1
  15    6   17 1
  16    6   18 1
  17    7    8 1
  18    7   13 2
  19    8    9 2
  20    8   10 1
  21    9   12 1
  22   10   11 2
  23   11   12 1
  24   11   40 1
  25   12   19 1
  26   14   15 1
  27   14   16 2
  28   15   26 2
  29   15   29 1
  30   17   41 1
  31   17   42 1
  32   17   43 1
  33   18   44 1
  34   18   45 1
  35   18   46 1
  36   19   20 ar
  37   19   24 ar
  38   20   21 ar
  39   20   47 1
  40   21   22 ar
  41   21   25 1
  42   22   23 ar
  43   22   48 1
  44   23   24 ar
  45   23   49 1
  46   24   50 1
  47   26   27 1
  48   26   51 1
  49   27   28 1
  50   27   30 1
  51   28   29 2
  52   28   33 1
  53   29   52 1
  54   30   31 2
  55   30   53 1
  56   31   32 1
  57   31   54 1
  58   32   33 2
  59   32   55 1
  60   33   56 1

#	End of record

