#	Name: ASD01670019
#	Creating user name:	WinNT
#	Creation time:	15. 06. 2019 19:22

#	Modifying user name:	WinNT
#	Modification time:	15. 06. 2019 19:22

#	Program:	/corina/corina34_cracker 3.40 0067  02.08.2006

@<TRIPOS>MOLECULE
ASD01670019
  34   37    0    0    0
SMALL
NO_CHARGES


@<TRIPOS>ATOM
   1 O1            -0.0145     0.0347     0.2117 O.2     
   2 C2             0.1854     1.0465     0.8581 C.2     
   3 C3             1.3840     1.9016     0.7821 C.2     
   4 C4             2.4798     1.7276    -0.0127 C.2     
   5 C5             3.4867     2.7864    -0.1141 C.ar    
   6 C6             3.0941     4.1133    -0.3056 C.ar    
   7 C7             4.0428     5.1108    -0.4005 C.ar    
   8 C8             5.3944     4.8114    -0.3080 C.ar    
   9 O9             6.4996     5.6086    -0.3701 O.3     
  10 C10            7.6019     4.7187    -0.6260 C.3     
  11 O11            7.1711     3.4670    -0.0598 O.3     
  12 C12            5.8106     3.4910    -0.1165 C.ar    
  13 C13            4.8630     2.4721    -0.0127 C.ar    
  14 C14            5.2921     1.0787     0.1953 C.2     
  15 O15            5.5135     0.3620    -0.7608 O.2     
  16 O16            5.4393     0.5984     1.4460 O.3     
  17 C17            1.1404     2.9904     1.7550 C.ar    
  18 C18           -0.1155     2.7390     2.3235 C.ar    
  19 N19           -0.6499     1.5847     1.7629 N.am    
  20 C20           -0.6089     3.6139     3.2852 C.ar    
  21 C21            0.1338     4.7121     3.6690 C.ar    
  22 C22            1.3745     4.9573     3.1044 C.ar    
  23 C23            1.8812     4.0999     2.1487 C.ar    
  24 H24            2.6045     0.8090    -0.5670 H       
  25 H25            2.0450     4.3590    -0.3799 H       
  26 H26            3.7304     6.1339    -0.5486 H       
  27 H27            7.7702     4.6161    -1.6980 H       
  28 H28            8.5041     5.0737    -0.1281 H       
  29 H29            5.7228    -0.3221     1.5322 H       
  30 H30           -1.5148     1.2132     1.9971 H       
  31 H31           -1.5754     3.4339     3.7324 H       
  32 H32           -0.2564     5.3869     4.4166 H       
  33 H33            1.9461     5.8203     3.4124 H       
  34 H34            2.8489     4.2899     1.7083 H       
@<TRIPOS>BOND
   1    1    2 2
   2    2    3 1
   3    2   19 am
   4    3    4 2
   5    3   17 1
   6    4    5 1
   7    4   24 1
   8    5    6 ar
   9    5   13 ar
  10    6    7 ar
  11    6   25 1
  12    7    8 ar
  13    7   26 1
  14    8    9 1
  15    8   12 ar
  16    9   10 1
  17   10   11 1
  18   10   27 1
  19   10   28 1
  20   11   12 1
  21   12   13 ar
  22   13   14 1
  23   14   15 2
  24   14   16 1
  25   16   29 1
  26   17   18 ar
  27   17   23 ar
  28   18   19 1
  29   18   20 ar
  30   19   30 1
  31   20   21 ar
  32   20   31 1
  33   21   22 ar
  34   21   32 1
  35   22   23 ar
  36   22   33 1
  37   23   34 1

#	End of record

