#	Name: ASD01913618
#	Creating user name:	WinNT
#	Creation time:	15. 06. 2019 20:01

#	Modifying user name:	WinNT
#	Modification time:	15. 06. 2019 20:01

#	Program:	/corina/corina34_cracker 3.40 0067  02.08.2006

@<TRIPOS>MOLECULE
ASD01913618
  63   68    0    0    0
SMALL
NO_CHARGES


@<TRIPOS>ATOM
   1 C1             0.0890     1.4554     0.3119 C.ar    
   2 C2             0.0485    -0.0127     0.1330 C.2     
   3 N3            -1.0124    -0.8155     0.3819 N.pl3   
   4 N4            -0.6022    -2.1226     0.0737 N.2     
   5 C5             0.6466    -2.0460    -0.3331 C.2     
   6 N6             1.0362    -0.7667    -0.3016 N.2     
   7 C7             1.4853    -3.1923    -0.7633 C.ar    
   8 C8             2.7998    -2.9810    -1.1743 C.ar    
   9 C9             3.5761    -4.0496    -1.5730 C.ar    
  10 C10            3.0504    -5.3315    -1.5650 C.ar    
  11 C11            1.7437    -5.5461    -1.1575 C.ar    
  12 C12            0.9622    -4.4838    -0.7517 C.ar    
  13 C13           -2.3283    -0.4024     0.8757 C.3     
  14 C14           -3.2439    -0.1410    -0.2924 C.2     
  15 N15           -4.5146     0.2533    -0.0776 N.am    
  16 O16           -2.8371    -0.2855    -1.4259 O.2     
  17 C17           -5.0230     0.4330     1.2823 C.3     
  18 C18            1.3140     2.1125     0.4304 C.ar    
  19 C19            1.3464     3.4813     0.5965 C.ar    
  20 C20            0.1648     4.2038     0.6459 C.ar    
  21 C21           -1.0546     3.5557     0.5291 C.ar    
  22 C22           -1.0976     2.1880     0.3569 C.ar    
  23 F23            3.8140    -6.3751    -1.9561 F       
  24 F24            0.2018     5.5444     0.8088 F       
  25 C25           -6.5119     0.0775     1.2410 C.3     
  26 C26           -7.3504     1.2773     0.9048 C.ar    
  27 C27           -7.0940     2.0891    -0.1744 C.ar    
  28 C28           -5.9045     1.9594    -1.0859 C.3     
  29 C29           -5.4219     0.5193    -1.2061 C.3     
  30 N30           -8.3906     1.5524     1.6886 N.ar    
  31 C31           -9.1985     2.5584     1.4327 C.ar    
  32 N32           -9.0196     3.3359     0.3850 N.ar    
  33 C33           -7.9927     3.1385    -0.4337 C.ar    
  34 C34           -7.7959     4.0175    -1.6119 C.ar    
  35 C35           -8.8980     4.5174    -2.3035 C.ar    
  36 C36           -8.7089     5.3349    -3.3992 C.ar    
  37 C37           -7.4286     5.6579    -3.8117 C.ar    
  38 C38           -6.3312     5.1646    -3.1291 C.ar    
  39 C39           -6.5084     4.3513    -2.0283 C.ar    
  40 H40            3.2102    -1.9820    -1.1812 H       
  41 H41            4.5950    -3.8866    -1.8920 H       
  42 H42            1.3377    -6.5468    -1.1531 H       
  43 H43           -0.0563    -4.6519    -0.4342 H       
  44 H44           -2.7483    -1.1939     1.4965 H       
  45 H45           -2.2253     0.5073     1.4672 H       
  46 H46           -4.4989    -0.2328     1.9680 H       
  47 H47           -4.8949     1.4693     1.5951 H       
  48 H48            2.2354     1.5503     0.3924 H       
  49 H49            2.2942     3.9909     0.6887 H       
  50 H50           -1.9727     4.1232     0.5685 H       
  51 H51           -2.0483     1.6839     0.2656 H       
  52 H52           -6.6740    -0.6935     0.4877 H       
  53 H53           -6.8141    -0.3075     2.2149 H       
  54 H54           -6.1761     2.3253    -2.0761 H       
  55 H55           -5.0913     2.5712    -0.6954 H       
  56 H56           -4.8910     0.3844    -2.1485 H       
  57 H57           -6.2721    -0.1611    -1.1588 H       
  58 H58          -10.0280     2.7509     2.0970 H       
  59 H59           -9.8979     4.2653    -1.9827 H       
  60 H60           -9.5620     5.7229    -3.9358 H       
  61 H61           -7.2854     6.2974    -4.6701 H       
  62 H62           -5.3340     5.4198    -3.4558 H       
  63 H63           -5.6509     3.9668    -1.4962 H       
@<TRIPOS>BOND
   1    1    2 1
   2    1   18 ar
   3    1   22 ar
   4    2    3 1
   5    2    6 2
   6    3    4 1
   7    3   13 1
   8    4    5 2
   9    5    6 1
  10    5    7 1
  11    7    8 ar
  12    7   12 ar
  13    8    9 ar
  14    8   40 1
  15    9   10 ar
  16    9   41 1
  17   10   11 ar
  18   10   23 1
  19   11   12 ar
  20   11   42 1
  21   12   43 1
  22   13   14 1
  23   13   44 1
  24   13   45 1
  25   14   15 am
  26   14   16 2
  27   15   17 1
  28   15   29 1
  29   17   25 1
  30   17   46 1
  31   17   47 1
  32   18   19 ar
  33   18   48 1
  34   19   20 ar
  35   19   49 1
  36   20   21 ar
  37   20   24 1
  38   21   22 ar
  39   21   50 1
  40   22   51 1
  41   25   26 1
  42   25   52 1
  43   25   53 1
  44   26   27 ar
  45   26   30 ar
  46   27   28 1
  47   27   33 ar
  48   28   29 1
  49   28   54 1
  50   28   55 1
  51   29   56 1
  52   29   57 1
  53   30   31 ar
  54   31   32 ar
  55   31   58 1
  56   32   33 ar
  57   33   34 1
  58   34   35 ar
  59   34   39 ar
  60   35   36 ar
  61   35   59 1
  62   36   37 ar
  63   36   60 1
  64   37   38 ar
  65   37   61 1
  66   38   39 ar
  67   38   62 1
  68   39   63 1

#	End of record

