#	Name: ASD03731655
#	Creating user name:	WinNT
#	Creation time:	15. 06. 2019 20:46

#	Modifying user name:	WinNT
#	Modification time:	15. 06. 2019 20:46

#	Program:	/corina/corina34_cracker 3.40 0067  02.08.2006

@<TRIPOS>MOLECULE
ASD03731655
  38   39    0    0    0
SMALL
NO_CHARGES


@<TRIPOS>ATOM
   1 C1            -0.1366     1.4672     0.0333 C.2     
   2 C2            -0.0854    -0.0063     0.0192 C.ar    
   3 C3             1.1399    -0.6647    -0.1385 C.ar    
   4 C4             1.1827    -2.0444    -0.1511 C.ar    
   5 C5             0.0129    -2.7784    -0.0083 C.ar    
   6 C6            -1.2080    -2.1272     0.1487 C.ar    
   7 C7            -1.2597    -0.7503     0.1688 C.ar    
   8 O8             0.8865     2.1124    -0.0920 O.2     
   9 N9            -1.3181     2.0990     0.1796 N.am    
  10 S10           -1.3757     3.7539     0.1956 S.o2    
  11 O11           -2.7508     4.0549     0.3894 O.2     
  12 O12           -0.4007     4.1292     1.1588 O.2     
  13 C13           -0.8460     4.2413    -1.4695 C.3     
  14 F14           -2.3432    -2.8467     0.2868 F       
  15 F15            2.2785     0.0489    -0.2784 F       
  16 O16            0.0593    -4.1349    -0.0222 O.3     
  17 C17           -0.1517    -4.7678    -1.2046 C.ar    
  18 C18           -0.0450    -6.1633    -1.2838 C.ar    
  19 C19           -0.2645    -6.8052    -2.5046 C.ar    
  20 C20           -0.5851    -6.0612    -3.6257 C.ar    
  21 C21           -0.6888    -4.6787    -3.5403 C.ar    
  22 C22           -0.4790    -4.0365    -2.3356 C.ar    
  23 O23           -0.7990    -6.6849    -4.8150 O.3     
  24 C24           -1.1264    -5.8564    -5.9324 C.3     
  25 C25            0.2878    -6.9269    -0.1190 C.1     
  26 N26            0.5518    -7.5326     0.8051 N.1     
  27 H27            2.1274    -2.5535    -0.2726 H       
  28 H28           -2.2065    -0.2465     0.2955 H       
  29 H29           -2.1347     1.5844     0.2756 H       
  30 H30           -1.5282     3.8175    -2.2064 H       
  31 H31           -0.8541     5.3283    -1.5498 H       
  32 H32            0.1626     3.8710    -1.6529 H       
  33 H33           -0.1836    -7.8800    -2.5733 H       
  34 H34           -0.9387    -4.1033    -4.4194 H       
  35 H35           -0.5660    -2.9617    -2.2757 H       
  36 H36           -2.0435    -5.3068    -5.7208 H       
  37 H37           -0.3142    -5.1523    -6.1129 H       
  38 H38           -1.2711    -6.4784    -6.8158 H       
@<TRIPOS>BOND
   1    1    2 1
   2    1    8 2
   3    1    9 am
   4    2    3 ar
   5    2    7 ar
   6    3    4 ar
   7    3   15 1
   8    4    5 ar
   9    4   27 1
  10    5    6 ar
  11    5   16 1
  12    6    7 ar
  13    6   14 1
  14    7   28 1
  15    9   10 am
  16    9   29 1
  17   10   11 2
  18   10   12 2
  19   10   13 1
  20   13   30 1
  21   13   31 1
  22   13   32 1
  23   16   17 1
  24   17   18 ar
  25   17   22 ar
  26   18   19 ar
  27   18   25 1
  28   19   20 ar
  29   19   33 1
  30   20   21 ar
  31   20   23 1
  32   21   22 ar
  33   21   34 1
  34   22   35 1
  35   23   24 1
  36   24   36 1
  37   24   37 1
  38   24   38 1
  39   25   26 3

#	End of record

