#	Name: ASD08150684
#	Creating user name:	WinNT
#	Creation time:	15. 06. 2019 21:16

#	Modifying user name:	WinNT
#	Modification time:	15. 06. 2019 21:16

#	Program:	/corina/corina34_cracker 3.40 0067  02.08.2006

@<TRIPOS>MOLECULE
ASD08150684
  41   43    0    0    0
SMALL
NO_CHARGES


@<TRIPOS>ATOM
   1 C1            -0.0174     1.3320     0.1142 C.2     
   2 N2            -0.0006     0.0026     0.2072 N.2     
   3 C3             1.1325    -0.6707     0.2944 C.2     
   4 C4             2.3481     0.0115     0.2905 C.2     
   5 C5             2.3333     1.4189     0.1923 C.2     
   6 N6             1.1443     2.0532     0.1052 N.am    
   7 C7            -1.2508     2.0012     0.0181 C.2     
   8 C8            -1.2710     3.3608    -0.0771 C.2     
   9 C9            -0.0632     4.0721    -0.0779 C.2     
  10 C10            1.1134     3.4118     0.0089 C.2     
  11 O11            3.3764     2.0517     0.1856 O.2     
  12 C12            3.6288    -0.7259     0.3880 C.ar    
  13 C13            4.5289    -0.7099    -0.6775 C.ar    
  14 C14            5.7207    -1.3985    -0.5804 C.ar    
  15 C15            6.0234    -2.1041     0.5704 C.ar    
  16 C16            5.1348    -2.1238     1.6306 C.ar    
  17 C17            3.9424    -1.4345     1.5479 C.ar    
  18 C18            2.4054     4.1875     0.0008 C.3     
  19 C19            1.1111    -2.1739     0.3985 C.3     
  20 C20            0.4483    -2.5845     1.7150 C.3     
  21 C21            0.5377    -4.1031     1.8791 C.3     
  22 N22            0.3505    -2.7319    -0.7276 N.3     
  23 H23           -2.1748     1.4420     0.0194 H       
  24 H24           -2.2115     3.8865    -0.1518 H       
  25 H25           -0.0722     5.1495    -0.1534 H       
  26 H26            4.2934    -0.1600    -1.5766 H       
  27 H27            6.4184    -1.3869    -1.4047 H       
  28 H28            6.9572    -2.6421     0.6414 H       
  29 H29            5.3765    -2.6768     2.5262 H       
  30 H30            3.2514    -1.4470     2.3778 H       
  31 H31            3.0126     3.8732    -0.8481 H       
  32 H32            2.1892     5.2526    -0.0818 H       
  33 H33            2.9489     3.9977     0.9264 H       
  34 H34            2.1321    -2.5546     0.3716 H       
  35 H35            0.9593    -2.0986     2.5461 H       
  36 H36           -0.5986    -2.2812     1.7048 H       
  37 H37            0.0656    -4.3956     2.8169 H       
  38 H38            0.0267    -4.5891     1.0479 H       
  39 H39            1.5846    -4.4064     1.8892 H       
  40 H40           -0.6161    -2.4453    -0.6884 H       
  41 H41            0.7685    -2.4746    -1.6091 H       
@<TRIPOS>BOND
   1    1    2 2
   2    1    6 1
   3    1    7 1
   4    2    3 1
   5    3    4 2
   6    3   19 1
   7    4    5 1
   8    4   12 1
   9    5    6 am
  10    5   11 2
  11    6   10 1
  12    7    8 2
  13    7   23 1
  14    8    9 1
  15    8   24 1
  16    9   10 2
  17    9   25 1
  18   10   18 1
  19   12   13 ar
  20   12   17 ar
  21   13   14 ar
  22   13   26 1
  23   14   15 ar
  24   14   27 1
  25   15   16 ar
  26   15   28 1
  27   16   17 ar
  28   16   29 1
  29   17   30 1
  30   18   31 1
  31   18   32 1
  32   18   33 1
  33   19   20 1
  34   19   22 1
  35   19   34 1
  36   20   21 1
  37   20   35 1
  38   20   36 1
  39   21   37 1
  40   21   38 1
  41   21   39 1
  42   22   40 1
  43   22   41 1

#	End of record

