#	Name: ASD01916413
#	Creating user name:	WinNT
#	Creation time:	15. 06. 2019 20:07

#	Modifying user name:	WinNT
#	Modification time:	15. 06. 2019 20:07

#	Program:	/corina/corina34_cracker 3.40 0067  02.08.2006

@<TRIPOS>MOLECULE
ASD01916413
  39   42    0    0    0
SMALL
NO_CHARGES


@<TRIPOS>ATOM
   1 C1            -0.0171     1.4111     0.0098 C.ar    
   2 C2             0.0021    -0.0041     0.0020 C.ar    
   3 C3            -1.1986    -0.7179     0.0123 C.ar    
   4 C4            -2.3867    -0.0494     0.0289 C.ar    
   5 C5            -2.4201     1.3538     0.0349 C.ar    
   6 C6            -1.2351     2.0862     0.0308 C.ar    
   7 C7             1.2624     2.1182     0.0014 C.2     
   8 C8             2.4180     1.4239    -0.0161 C.2     
   9 N9             2.4427     0.0562    -0.0290 N.am    
  10 C10            1.3024    -0.6752    -0.0174 C.2     
  11 C11            3.8390     1.9606    -0.0223 C.3     
  12 C12            4.7065     0.7527     0.3916 C.3     
  13 C13            3.8335    -0.4361    -0.0579 C.3     
  14 C14           -3.6789     2.0361     0.0508 C.1     
  15 C15           -4.7110     2.5955     0.0638 C.1     
  16 C16           -5.9699     3.2779     0.0797 C.ar    
  17 N17           -6.0002     4.6070     0.0854 N.ar    
  18 C18           -7.1374     5.2709     0.0995 C.ar    
  19 C19           -8.3496     4.6047     0.1090 C.ar    
  20 C20           -8.3652     3.2163     0.1036 C.ar    
  21 C21           -7.1578     2.5420     0.0833 C.ar    
  22 O22            1.3594    -1.8919    -0.0227 O.2     
  23 C23            6.0442     0.7603    -0.3511 C.3     
  24 H24           -1.1858    -1.7978     0.0069 H       
  25 H25           -3.3124    -0.6057     0.0371 H       
  26 H26           -1.2607     3.1659     0.0359 H       
  27 H27            1.2819     3.1980     0.0088 H       
  28 H28            4.1129     2.3020    -1.0205 H       
  29 H29            3.9436     2.7700     0.7002 H       
  30 H30            4.8617     0.7360     1.4703 H       
  31 H31            3.9515    -1.2717     0.6319 H       
  32 H32            4.1040    -0.7407    -1.0689 H       
  33 H33           -7.1235     6.3508     0.1040 H       
  34 H34           -9.2760     5.1596     0.1209 H       
  35 H35           -9.2996     2.6749     0.1107 H       
  36 H36           -7.1333     1.4623     0.0786 H       
  37 H37            6.5852     1.6768    -0.1159 H       
  38 H38            6.6365    -0.1009    -0.0417 H       
  39 H39            5.8638     0.7102    -1.4250 H       
@<TRIPOS>BOND
   1    1    2 ar
   2    1    7 1
   3    1    6 ar
   4    2    3 ar
   5    2   10 1
   6    3    4 ar
   7    3   24 1
   8    4    5 ar
   9    4   25 1
  10    5    6 ar
  11    5   14 1
  12    6   26 1
  13    7    8 2
  14    7   27 1
  15    8    9 1
  16    8   11 1
  17    9   10 am
  18    9   13 1
  19   10   22 2
  20   11   12 1
  21   11   28 1
  22   11   29 1
  23   12   13 1
  24   12   23 1
  25   12   30 1
  26   13   31 1
  27   13   32 1
  28   14   15 3
  29   15   16 1
  30   16   17 ar
  31   16   21 ar
  32   17   18 ar
  33   18   19 ar
  34   18   33 1
  35   19   20 ar
  36   19   34 1
  37   20   21 ar
  38   20   35 1
  39   21   36 1
  40   23   37 1
  41   23   38 1
  42   23   39 1

#	End of record

