#	Name: ASD01881866
#	Creating user name:	WinNT
#	Creation time:	15. 06. 2019 19:43

#	Modifying user name:	WinNT
#	Modification time:	15. 06. 2019 19:43

#	Program:	/corina/corina34_cracker 3.40 0067  02.08.2006

@<TRIPOS>MOLECULE
ASD01881866
  37   40    0    0    0
SMALL
NO_CHARGES


@<TRIPOS>ATOM
   1 N1            -0.0154     1.2839     0.0091 N.pl3   
   2 N2             0.0021    -0.0041     0.0020 N.2     
   3 N3             1.2033    -0.4649    -0.0119 N.2     
   4 C4             2.0741     0.5645    -0.0147 C.ar    
   5 C5             1.2843     1.7298    -0.0009 C.ar    
   6 C6             3.4670     0.6759    -0.0271 C.ar    
   7 C7             4.0484     1.9285    -0.0255 C.ar    
   8 C8             3.2560     3.0739    -0.0118 C.ar    
   9 C9             1.8924     2.9784    -0.0004 C.ar    
  10 O10            5.4033     2.0444    -0.0370 O.3     
  11 C11            5.9411     3.3683    -0.0346 C.3     
  12 S12            8.4365     3.2458     1.3444 S.3     
  13 C13            7.4465     3.2990    -0.0485 C.2     
  14 N14            8.1747     3.2712    -1.1132 N.2     
  15 C15            9.4805     3.2101    -0.9466 C.2     
  16 C16            9.8758     3.1849     0.3298 C.2     
  17 C17           10.4488     3.1712    -2.1007 C.3     
  18 F18            9.7487     3.3252    -3.3021 F       
  19 F19           11.3772     4.2090    -1.9657 F       
  20 F20           11.1192     1.9433    -2.1058 F       
  21 C21           -1.2133     2.1272     0.0196 C.3     
  22 C22           -1.6228     2.4135     1.4657 C.3     
  23 C23           -2.7884     3.3784     1.6921 C.3     
  24 C24           -2.9777     1.8797     1.9352 C.3     
  25 Br25           4.5472    -0.8761    -0.0451 Br      
  26 H26            3.7236     4.0474    -0.0103 H       
  27 H27            1.2882     3.8735     0.0099 H       
  28 H28            5.5939     3.9031    -0.9187 H       
  29 H29            5.6098     3.8935     0.8612 H       
  30 H30           10.8970     3.1360     0.6779 H       
  31 H31           -1.0007     3.0667    -0.4906 H       
  32 H32           -2.0254     1.6113    -0.4926 H       
  33 H33           -0.8089     2.4286     2.1906 H       
  34 H34           -2.7415     4.0280     2.5661 H       
  35 H35           -3.2635     3.8093     0.8108 H       
  36 H36           -3.5773     1.3246     1.2137 H       
  37 H37           -3.0553     1.5434     2.9691 H       
@<TRIPOS>BOND
   1    1    2 1
   2    1    5 1
   3    1   21 1
   4    2    3 2
   5    3    4 1
   6    4    5 ar
   7    4    6 ar
   8    5    9 ar
   9    6    7 ar
  10    6   25 1
  11    7    8 ar
  12    7   10 1
  13    8    9 ar
  14    8   26 1
  15    9   27 1
  16   10   11 1
  17   11   13 1
  18   11   28 1
  19   11   29 1
  20   12   13 1
  21   12   16 1
  22   13   14 2
  23   14   15 1
  24   15   16 2
  25   15   17 1
  26   16   30 1
  27   17   18 1
  28   17   19 1
  29   17   20 1
  30   21   22 1
  31   21   31 1
  32   21   32 1
  33   22   23 1
  34   22   24 1
  35   22   33 1
  36   23   24 1
  37   23   34 1
  38   23   35 1
  39   24   36 1
  40   24   37 1

#	End of record

