#	Name: ASD04881154
#	Creating user name:	WinNT
#	Creation time:	15. 06. 2019 20:53

#	Modifying user name:	WinNT
#	Modification time:	15. 06. 2019 20:53

#	Program:	/corina/corina34_cracker 3.40 0067  02.08.2006

@<TRIPOS>MOLECULE
ASD04881154
  81   87    0    0    0
SMALL
NO_CHARGES


@<TRIPOS>ATOM
   1 N1            -0.3334     1.5725     1.2907 N.2     
   2 C2             0.8642     1.8850     0.7252 C.2     
   3 C3             1.3673     3.2390     0.4318 C.2     
   4 O4             2.4619     3.3837    -0.0785 O.2     
   5 C5             1.5099     0.7119     0.4816 C.2     
   6 O6             0.7005    -0.2745     0.8992 O.3     
   7 C7            -0.4177     0.2796     1.3885 C.2     
   8 N8             0.6146     4.3167     0.7291 N.am    
   9 C9             1.1353     5.6054     0.5519 C.ar    
  10 C10            0.2919     6.6553     0.1766 C.ar    
  11 C11            0.8068     7.9342     0.0010 C.ar    
  12 C12            2.1496     8.1722     0.1959 C.ar    
  13 C13            2.9984     7.1273     0.5710 C.ar    
  14 C14            2.4818     5.8408     0.7535 C.ar    
  15 C15            4.4360     7.3822     0.7797 C.2     
  16 O16            5.1738     6.4723     1.1062 O.2     
  17 N17            4.9320     8.6237     0.6085 N.am    
  18 N18           -1.0661     6.4192    -0.0219 N.3     
  19 C19           -1.2847     5.5491    -1.1859 C.3     
  20 C20           -2.7795     5.2499    -1.3221 C.3     
  21 N21           -3.5180     6.5123    -1.4657 N.3     
  22 C22           -3.2994     7.3824    -0.3018 C.3     
  23 C23           -1.8046     7.6816    -0.1655 C.3     
  24 C24           -4.8800     6.2755    -1.6649 C.ar    
  25 C25           -5.3169     5.6646    -2.8337 C.ar    
  26 C26           -6.6641     5.4316    -3.0271 C.ar    
  27 C27           -7.5783     5.8060    -2.0591 C.ar    
  28 C28           -7.1469     6.4141    -0.8948 C.ar    
  29 C29           -5.8002     6.6450    -0.6923 C.ar    
  30 C30           -1.5878    -0.4775     1.9621 C.3     
  31 C31           -2.3076    -1.4671     1.0437 C.3     
  32 C32           -1.4183    -1.9828     2.1769 C.3     
  33 C33           -4.3217     5.2573    -3.8894 C.3     
  34 C34            6.2907     8.8646     0.8057 C.2     
  35 C35            7.2270     7.9458     1.1698 C.2     
  36 C36            8.4585     8.6002     1.2569 C.2     
  37 N37            8.2790     9.8614     0.9588 N.2     
  38 N38            6.9237    10.0577     0.6641 N.pl3   
  39 C39            6.2999    11.3249     0.2751 C.3     
  40 C40            5.8273    12.0663     1.5273 C.3     
  41 C41            5.2783    13.4618     1.1554 C.3     
  42 C42            3.8019    13.4171     1.6075 C.3     
  43 O43            3.7616    12.4046     2.6366 O.3     
  44 C44            4.6176    11.3434     2.1601 C.3     
  45 H45            2.4872     0.5965     0.0365 H       
  46 H46           -0.2876     4.2002     1.0657 H       
  47 H47            0.1529     8.7431    -0.2893 H       
  48 H48            2.5468     9.1670     0.0582 H       
  49 H49            3.1345     5.0321     1.0474 H       
  50 H50            4.3435     9.3494     0.3481 H       
  51 H51           -0.9307     6.0508    -2.0865 H       
  52 H52           -0.7379     4.6160    -1.0502 H       
  53 H53           -2.9472     4.6284    -2.2017 H       
  54 H54           -3.1276     4.7240    -0.4331 H       
  55 H55           -3.8461     8.3155    -0.4374 H       
  56 H56           -3.6534     6.8807     0.5988 H       
  57 H57           -1.6369     8.3031     0.7141 H       
  58 H58           -1.4565     8.2075    -1.0545 H       
  59 H59           -7.0044     4.9568    -3.9355 H       
  60 H60           -8.6315     5.6232    -2.2133 H       
  61 H61           -7.8634     6.7052    -0.1409 H       
  62 H62           -5.4635     7.1161     0.2193 H       
  63 H63           -2.1927     0.0695     2.6853 H       
  64 H64           -3.3860    -1.5715     1.1629 H       
  65 H65           -1.9348    -1.5706     0.0247 H       
  66 H66           -0.4606    -2.4256     1.9034 H       
  67 H67           -1.9117    -2.4265     3.0417 H       
  68 H68           -4.0425     4.2140    -3.7423 H       
  69 H69           -4.7688     5.3780    -4.8762 H       
  70 H70           -3.4340     5.8852    -3.8135 H       
  71 H71            7.0493     6.8973     1.3583 H       
  72 H72            9.3992     8.1425     1.5251 H       
  73 H73            7.0258    11.9387    -0.2582 H       
  74 H74            5.4465    11.1259    -0.3730 H       
  75 H75            6.6410    12.1553     2.2471 H       
  76 H76            5.8190    14.2407     1.6932 H       
  77 H77            5.3436    13.6236     0.0795 H       
  78 H78            3.4998    14.3826     2.0131 H       
  79 H79            3.1581    13.1366     0.7738 H       
  80 H80            4.0990    10.7449     1.4112 H       
  81 H81            4.9422    10.7160     2.9903 H       
@<TRIPOS>BOND
   1    1    7 2
   2    1    2 1
   3    2    3 1
   4    2    5 2
   5    3    4 2
   6    3    8 am
   7    5    6 1
   8    5   45 1
   9    6    7 1
  10    7   30 1
  11    8    9 1
  12    8   46 1
  13    9   10 ar
  14    9   14 ar
  15   10   11 ar
  16   10   18 1
  17   11   12 ar
  18   11   47 1
  19   12   13 ar
  20   12   48 1
  21   13   14 ar
  22   13   15 1
  23   14   49 1
  24   15   16 2
  25   15   17 am
  26   17   34 1
  27   17   50 1
  28   18   19 1
  29   18   23 1
  30   19   20 1
  31   19   51 1
  32   19   52 1
  33   20   21 1
  34   20   53 1
  35   20   54 1
  36   21   22 1
  37   21   24 1
  38   22   23 1
  39   22   55 1
  40   22   56 1
  41   23   57 1
  42   23   58 1
  43   24   25 ar
  44   24   29 ar
  45   25   26 ar
  46   25   33 1
  47   26   27 ar
  48   26   59 1
  49   27   28 ar
  50   27   60 1
  51   28   29 ar
  52   28   61 1
  53   29   62 1
  54   30   31 1
  55   30   32 1
  56   30   63 1
  57   31   32 1
  58   31   64 1
  59   31   65 1
  60   32   66 1
  61   32   67 1
  62   33   68 1
  63   33   69 1
  64   33   70 1
  65   34   35 2
  66   34   38 1
  67   35   36 1
  68   35   71 1
  69   36   37 2
  70   36   72 1
  71   37   38 1
  72   38   39 1
  73   39   40 1
  74   39   73 1
  75   39   74 1
  76   40   41 1
  77   40   44 1
  78   40   75 1
  79   41   42 1
  80   41   76 1
  81   41   77 1
  82   42   43 1
  83   42   78 1
  84   42   79 1
  85   43   44 1
  86   44   80 1
  87   44   81 1

#	End of record

