#	Name: ASD04560159
#	Creating user name:	WinNT
#	Creation time:	15. 06. 2019 20:49

#	Modifying user name:	WinNT
#	Modification time:	15. 06. 2019 20:49

#	Program:	/corina/corina34_cracker 3.40 0067  02.08.2006

@<TRIPOS>MOLECULE
ASD04560159
  56   59    0    0    0
SMALL
NO_CHARGES


@<TRIPOS>ATOM
   1 C1            -1.1163     0.6431    -1.5807 C.ar    
   2 C2            -1.9754    -0.3795    -1.8897 C.ar    
   3 C3            -2.3826    -0.5748    -3.2074 C.ar    
   4 C4            -1.9185     0.2679    -4.2149 C.ar    
   5 C5            -1.0589     1.2919    -3.9120 C.ar    
   6 C6            -0.6486     1.4907    -2.5899 C.ar    
   7 C7             0.2755     2.5915    -2.2608 C.2     
   8 O8             1.1084     2.9492    -3.0716 O.2     
   9 N9             0.1973     3.2012    -1.0614 N.am    
  10 C10            1.1346     4.1799    -0.7114 C.ar    
  11 C11            2.4912     3.8840    -0.7368 C.ar    
  12 C12            1.6364     6.4142     0.0008 C.ar    
  13 C13            0.7097     5.4498    -0.3438 C.ar    
  14 S14           -3.4866    -1.8906    -3.6008 S.3     
  15 C15            3.4145     4.8513    -0.3915 C.ar    
  16 C16            2.9883     6.1153    -0.0197 C.ar    
  17 F17            3.8932     7.0601     0.3177 F       
  18 C18           -3.7008    -1.7211    -5.3941 C.3     
  19 C19           -4.6350    -2.7937    -5.8920 C.ar    
  20 C20           -5.9812    -2.5031    -6.1054 C.ar    
  21 C21           -4.1578    -4.0640    -6.1429 C.ar    
  22 C22           -6.8397    -3.5000    -6.5666 C.ar    
  23 C23           -6.3530    -4.7679    -6.8091 C.ar    
  24 C24           -0.8690     2.8397    -0.1241 C.3     
  25 C25           -5.0142    -5.0495    -6.6005 C.ar    
  26 B26           -6.5291    -1.0583    -5.8270 Du      
  27 O27           -7.5047    -0.4907    -6.6887 O.3     
  28 O28           -6.0490    -0.3193    -4.7136 O.3     
  29 C29           -0.2607     2.3851     1.1776 C.ar    
  30 C30           -0.8066     2.7756     2.3908 C.ar    
  31 C31            0.8547     1.5616     1.1905 C.ar    
  32 C32            1.3850     1.1650     2.4035 C.ar    
  33 N33            0.8423     1.5602     3.5385 N.ar    
  34 C34           -0.2216     2.3390     3.5643 C.ar    
  35 H35           -0.8044     0.7967    -0.5581 H       
  36 H36           -2.3366    -1.0346    -1.1107 H       
  37 H37           -2.2360     0.1142    -5.2357 H       
  38 H38           -0.6988     1.9445    -4.6936 H       
  39 H39            2.8239     2.8981    -1.0260 H       
  40 H40            1.3063     7.4019     0.2867 H       
  41 H41           -0.3446     5.6833    -0.3277 H       
  42 H42            4.4696     4.6216    -0.4111 H       
  43 H43           -4.1207    -0.7406    -5.6188 H       
  44 H44           -2.7340    -1.8239    -5.8869 H       
  45 H45           -3.1138    -4.2892    -5.9821 H       
  46 H46           -7.8839    -3.2803    -6.7333 H       
  47 H47           -7.0171    -5.5410    -7.1663 H       
  48 H48           -1.5046     3.7068     0.0552 H       
  49 H49           -1.4666     2.0324    -0.5474 H       
  50 H50           -4.6374    -6.0435    -6.7916 H       
  51 H51           -7.8244    -1.0948    -7.3728 H       
  52 H52           -5.3541    -0.7686    -4.2134 H       
  53 H53           -1.6778     3.4133     2.4184 H       
  54 H54            1.3033     1.2341     0.2642 H       
  55 H55            2.2538     0.5236     2.4221 H       
  56 H56           -0.6382     2.6422     4.5134 H       
@<TRIPOS>BOND
   1    1    2 ar
   2    1    6 ar
   3    1   35 1
   4    2    3 ar
   5    2   36 1
   6    3    4 ar
   7    3   14 1
   8    4    5 ar
   9    4   37 1
  10    5    6 ar
  11    5   38 1
  12    6    7 1
  13    7    8 2
  14    7    9 am
  15    9   10 1
  16    9   24 1
  17   10   11 ar
  18   10   13 ar
  19   11   15 ar
  20   11   39 1
  21   12   13 ar
  22   12   16 ar
  23   12   40 1
  24   13   41 1
  25   14   18 1
  26   15   16 ar
  27   15   42 1
  28   16   17 1
  29   18   19 1
  30   18   43 1
  31   18   44 1
  32   19   20 ar
  33   19   21 ar
  34   20   26 1
  35   20   22 ar
  36   21   25 ar
  37   21   45 1
  38   22   23 ar
  39   22   46 1
  40   23   25 ar
  41   23   47 1
  42   24   29 1
  43   24   48 1
  44   24   49 1
  45   25   50 1
  46   26   27 1
  47   26   28 1
  48   27   51 1
  49   28   52 1
  50   29   30 ar
  51   29   31 ar
  52   30   34 ar
  53   30   53 1
  54   31   32 ar
  55   31   54 1
  56   32   33 ar
  57   32   55 1
  58   33   34 ar
  59   34   56 1

#	End of record

