#	Name: ASD01883127
#	Creating user name:	WinNT
#	Creation time:	15. 06. 2019 19:45

#	Modifying user name:	WinNT
#	Modification time:	15. 06. 2019 19:45

#	Program:	/corina/corina34_cracker 3.40 0067  02.08.2006

@<TRIPOS>MOLECULE
ASD01883127
  35   36    0    0    0
SMALL
NO_CHARGES


@<TRIPOS>ATOM
   1 N1            -0.0162     1.3415     0.0094 N.am    
   2 C2             0.0021    -0.0041     0.0020 C.2     
   3 C3            -1.2147    -0.7275     0.0097 C.2     
   4 C4            -2.4281    -0.0090     0.0252 C.2     
   5 C5            -2.3787     1.4024     0.0323 C.2     
   6 C6            -1.1854     2.0347     0.0299 C.2     
   7 O7             1.0659    -0.5997    -0.0117 O.2     
   8 C8            -1.2134    -2.1595     0.0016 C.1     
   9 N9            -1.2124    -3.2955    -0.0049 N.1     
  10 C10            1.2518     2.0753     0.0013 C.3     
  11 C11            1.6794     2.3385    -1.4440 C.3     
  12 C12            3.0036     3.1049    -1.4525 C.3     
  13 C13            3.4942     3.2593    -2.8935 C.3     
  14 C14            2.7960     4.4886    -0.8335 C.3     
  15 C15           -3.7166    -0.7140     0.0332 C.2     
  16 C16           -4.6351    -0.6951     1.0434 C.2     
  17 C17           -5.7083    -1.5010     0.6287 C.2     
  18 C18           -5.4012    -1.9700    -0.6002 C.2     
  19 O19           -4.2021    -1.4884    -0.9581 O.3     
  20 H20           -3.2941     1.9754     0.0441 H       
  21 H21           -1.1596     3.1144     0.0358 H       
  22 H22            1.1254     3.0248     0.5214 H       
  23 H23            2.0169     1.4843     0.5046 H       
  24 H24            1.8058     1.3890    -1.9642 H       
  25 H25            0.9143     2.9296    -1.9474 H       
  26 H26            3.7453     2.5552    -0.8731 H       
  27 H27            2.7525     3.8090    -3.4729 H       
  28 H28            4.4376     3.8053    -2.8996 H       
  29 H29            3.6421     2.2735    -3.3345 H       
  30 H30            2.4465     4.3786     0.1931 H       
  31 H31            3.7394     5.0346    -0.8395 H       
  32 H32            2.0543     5.0383    -1.4129 H       
  33 H33           -4.5524    -0.1637     1.9800 H       
  34 H34           -6.6092    -1.7074     1.1876 H       
  35 H35           -6.0211    -2.6220    -1.1977 H       
@<TRIPOS>BOND
   1    1    2 am
   2    1   10 1
   3    1    6 1
   4    2    3 1
   5    2    7 2
   6    3    4 2
   7    3    8 1
   8    4    5 1
   9    4   15 1
  10    5    6 2
  11    5   20 1
  12    6   21 1
  13    8    9 3
  14   10   11 1
  15   10   22 1
  16   10   23 1
  17   11   12 1
  18   11   24 1
  19   11   25 1
  20   12   13 1
  21   12   14 1
  22   12   26 1
  23   13   27 1
  24   13   28 1
  25   13   29 1
  26   14   30 1
  27   14   31 1
  28   14   32 1
  29   15   16 2
  30   15   19 1
  31   16   17 1
  32   16   33 1
  33   17   18 2
  34   17   34 1
  35   18   19 1
  36   18   35 1

#	End of record

