#	Name: ASD01884159
#	Creating user name:	WinNT
#	Creation time:	15. 06. 2019 19:47

#	Modifying user name:	WinNT
#	Modification time:	15. 06. 2019 19:47

#	Program:	/corina/corina34_cracker 3.40 0067  02.08.2006

@<TRIPOS>MOLECULE
ASD01884159
  43   45    0    0    0
SMALL
NO_CHARGES


@<TRIPOS>ATOM
   1 C1            -0.0238     1.3965     0.0789 C.ar    
   2 C2            -0.0071     0.0139     0.2336 C.ar    
   3 C3            -1.2197    -0.6761     0.1640 C.ar    
   4 C4            -2.3830     0.0284    -0.0537 C.ar    
   5 N5            -2.3650     1.3414    -0.1965 N.ar    
   6 C6            -1.2380     2.0356    -0.1322 C.ar    
   7 N7            -1.2706     3.4166    -0.2888 N.pl3   
   8 N8             1.1884    -0.6649     0.4518 N.3     
   9 C9             1.1582    -1.3860     1.7307 C.3     
  10 C10            2.5337    -1.9982     2.0052 C.3     
  11 C11            2.8744    -2.1905    -0.4595 C.3     
  12 C12            1.4891    -1.5727    -0.6626 C.3     
  13 N13           -2.4555     4.0476    -0.5413 N.3     
  14 C14            1.2562     2.1891     0.1459 C.3     
  15 F15            2.3374     1.3160     0.3074 F       
  16 F16            1.4169     2.9162    -1.0384 F       
  17 F17            1.2026     3.0707     1.2308 F       
  18 C18            4.2766    -3.5157     1.1012 C.ar    
  19 C19            4.7024    -4.6230     0.3917 C.ar    
  20 C20            5.9696    -5.1336     0.6026 C.ar    
  21 C21            6.8111    -4.5366     1.5226 C.ar    
  22 C22            6.3855    -3.4287     2.2314 C.ar    
  23 C23            5.1178    -2.9190     2.0215 C.ar    
  24 C24            2.8974    -2.9553     0.8668 C.3     
  25 F25            1.9686    -4.0004     0.8199 F       
  26 H26           -1.2446    -1.7497     0.2791 H       
  27 H27           -3.3231    -0.5003    -0.1087 H       
  28 H28           -0.4519     3.9321    -0.2188 H       
  29 H29            0.9026    -0.6931     2.5323 H       
  30 H30            0.4110    -2.1781     1.6835 H       
  31 H31            3.2793    -1.2054     2.0663 H       
  32 H32            2.5066    -2.5464     2.9470 H       
  33 H33            3.0908    -2.8761    -1.2788 H       
  34 H34            3.6253    -1.4007    -0.4372 H       
  35 H35            0.7403    -2.3640    -0.6986 H       
  36 H36            1.4737    -1.0155    -1.5993 H       
  37 H37           -3.1371     3.8358     0.1718 H       
  38 H38           -2.3229     5.0439    -0.6302 H       
  39 H39            4.0450    -5.0895    -0.3271 H       
  40 H40            6.3021    -5.9992     0.0488 H       
  41 H41            7.8008    -4.9359     1.6878 H       
  42 H42            7.0427    -2.9627     2.9506 H       
  43 H43            4.7851    -2.0539     2.5758 H       
@<TRIPOS>BOND
   1    1    2 ar
   2    1   14 1
   3    1    6 ar
   4    2    3 ar
   5    2    8 1
   6    3    4 ar
   7    3   26 1
   8    4    5 ar
   9    4   27 1
  10    5    6 ar
  11    6    7 1
  12    7   13 1
  13    7   28 1
  14    8    9 1
  15    8   12 1
  16    9   10 1
  17    9   29 1
  18    9   30 1
  19   10   24 1
  20   10   31 1
  21   10   32 1
  22   11   12 1
  23   11   24 1
  24   11   33 1
  25   11   34 1
  26   12   35 1
  27   12   36 1
  28   13   37 1
  29   13   38 1
  30   14   15 1
  31   14   16 1
  32   14   17 1
  33   18   19 ar
  34   18   23 ar
  35   18   24 1
  36   19   20 ar
  37   19   39 1
  38   20   21 ar
  39   20   40 1
  40   21   22 ar
  41   21   41 1
  42   22   23 ar
  43   22   42 1
  44   23   43 1
  45   24   25 1

#	End of record

