#	Name: ASD08170049
#	Creating user name:	WinNT
#	Creation time:	15. 06. 2019 21:17

#	Modifying user name:	WinNT
#	Modification time:	15. 06. 2019 21:17

#	Program:	/corina/corina34_cracker 3.40 0067  02.08.2006

@<TRIPOS>MOLECULE
ASD08170049
  64   67    0    0    0
SMALL
NO_CHARGES


@<TRIPOS>ATOM
   1 C1            -0.0187     1.5266     0.0104 C.3     
   2 C2             0.0021    -0.0041     0.0020 C.3     
   3 C3            -1.4083    -0.5285     0.0658 C.2     
   4 C4            -2.3820     0.1598     0.7123 C.2     
   5 C5            -2.1120     1.3974     1.3228 C.2     
   6 C6            -0.7334     1.9998     1.2801 C.3     
   7 C7            -1.7368    -1.7986    -0.5913 C.ar    
   8 C8            -3.0896    -2.1195    -0.8172 C.ar    
   9 N9            -4.0608    -1.2224    -0.3889 N.pl3   
  10 C10           -3.7811    -0.4034     0.7965 C.3     
  11 C11           -0.7381    -2.6882    -0.9947 C.ar    
  12 C12           -1.0894    -3.8675    -1.6157 C.ar    
  13 C13           -2.4226    -4.1748    -1.8429 C.ar    
  14 C14           -3.4222    -3.3067    -1.4462 C.ar    
  15 C15           -3.9046    -1.2548     2.0339 C.ar    
  16 C16           -4.4959    -0.7367     3.1713 C.ar    
  17 C17           -4.6106    -1.5148     4.3076 C.ar    
  18 C18           -4.1313    -2.8192     4.3056 C.ar    
  19 C19           -3.5384    -3.3359     3.1608 C.ar    
  20 C20           -3.4313    -2.5542     2.0272 C.ar    
  21 C21            1.4154     2.0595    -0.0004 C.3     
  22 C22           -0.7653     2.0367    -1.2237 C.3     
  23 O23           -3.0058     1.9899     1.8937 O.2     
  24 N24           -4.2451    -3.6088     5.4527 N.3     
  25 C25           -5.0410    -4.8142     5.1852 C.3     
  26 C26           -2.9211    -3.9594     5.9840 C.3     
  27 Br27          -5.4183    -0.8053     5.8633 Br      
  28 C28           -0.0158    -4.8308    -2.0521 C.3     
  29 C29            0.7946    -5.2774    -0.8336 C.3     
  30 C30           -0.6625    -6.0515    -2.7097 C.3     
  31 C31            0.9105    -4.1415    -3.0559 C.3     
  32 H32            0.4790    -0.3556    -0.9129 H       
  33 H33            0.5626    -0.3642     0.8647 H       
  34 H34           -0.1690     1.6807     2.1562 H       
  35 H35           -0.8109     3.0871     1.2713 H       
  36 H36           -4.9034    -1.1394    -0.8623 H       
  37 H37           -4.4986     0.4154     0.8486 H       
  38 H38            0.3018    -2.4535    -0.8215 H       
  39 H39           -2.6821    -5.1011    -2.3339 H       
  40 H40           -4.4580    -3.5533    -1.6268 H       
  41 H41           -4.8681     0.2771     3.1718 H       
  42 H42           -3.1644    -4.3491     3.1560 H       
  43 H43           -2.9707    -2.9558     1.1367 H       
  44 H44            1.9265     1.7093    -0.8972 H       
  45 H45            1.3981     3.1494     0.0056 H       
  46 H46            1.9435     1.6997     0.8827 H       
  47 H47           -1.7883     1.6606    -1.2108 H       
  48 H48           -0.7788     3.1266    -1.2155 H       
  49 H49           -0.2608     1.6863    -2.1242 H       
  50 H50           -4.5596    -5.4013     4.4031 H       
  51 H51           -5.1138    -5.4107     6.0946 H       
  52 H52           -6.0402    -4.5249     4.8595 H       
  53 H53           -2.3792    -3.0487     6.2389 H       
  54 H54           -3.0389    -4.5740     6.8764 H       
  55 H55           -2.3630    -4.5155     5.2308 H       
  56 H56            0.1347    -5.7684    -0.1184 H       
  57 H57            1.5712    -5.9741    -1.1492 H       
  58 H58            1.2553    -4.4077    -0.3651 H       
  59 H59           -1.2398    -5.7334    -3.5778 H       
  60 H60            0.1141    -6.7483    -3.0253 H       
  61 H61           -1.3224    -6.5426    -1.9946 H       
  62 H62            1.3713    -3.2719    -2.5874 H       
  63 H63            1.6871    -4.8383    -3.3715 H       
  64 H64            0.3332    -3.8234    -3.9240 H       
@<TRIPOS>BOND
   1    1    2 1
   2    1   21 1
   3    1   22 1
   4    1    6 1
   5    2    3 1
   6    2   32 1
   7    2   33 1
   8    3    4 2
   9    3    7 1
  10    4    5 1
  11    4   10 1
  12    5    6 1
  13    5   23 2
  14    6   34 1
  15    6   35 1
  16    7    8 ar
  17    7   11 ar
  18    8    9 1
  19    8   14 ar
  20    9   10 1
  21    9   36 1
  22   10   15 1
  23   10   37 1
  24   11   12 ar
  25   11   38 1
  26   12   13 ar
  27   12   28 1
  28   13   14 ar
  29   13   39 1
  30   14   40 1
  31   15   16 ar
  32   15   20 ar
  33   16   17 ar
  34   16   41 1
  35   17   18 ar
  36   17   27 1
  37   18   19 ar
  38   18   24 1
  39   19   20 ar
  40   19   42 1
  41   20   43 1
  42   21   44 1
  43   21   45 1
  44   21   46 1
  45   22   47 1
  46   22   48 1
  47   22   49 1
  48   24   25 1
  49   24   26 1
  50   25   50 1
  51   25   51 1
  52   25   52 1
  53   26   53 1
  54   26   54 1
  55   26   55 1
  56   28   29 1
  57   28   30 1
  58   28   31 1
  59   29   56 1
  60   29   57 1
  61   29   58 1
  62   30   59 1
  63   30   60 1
  64   30   61 1
  65   31   62 1
  66   31   63 1
  67   31   64 1

#	End of record

