#	Name: ASD05430152
#	Creating user name:	WinNT
#	Creation time:	15. 06. 2019 20:59

#	Modifying user name:	WinNT
#	Modification time:	15. 06. 2019 20:59

#	Program:	/corina/corina34_cracker 3.40 0067  02.08.2006

@<TRIPOS>MOLECULE
ASD05430152
  58   63    0    0    0
SMALL
NO_CHARGES


@<TRIPOS>ATOM
   1 C1             0.0398     1.2201     0.3289 C.ar    
   2 C2             0.0199    -0.0134    -0.3213 C.ar    
   3 C3             1.1858    -0.5317    -0.8702 C.ar    
   4 C4             2.3675     0.1704    -0.7749 C.ar    
   5 C5             2.3950     1.4081    -0.1242 C.ar    
   6 C6             1.2214     1.9299     0.4283 C.ar    
   7 C7             4.8965    -0.0084     0.2340 C.3     
   8 C8             4.8271     1.5012     0.0656 C.2     
   9 C9             3.6566     2.1597    -0.0213 C.2     
  10 C10            6.0095    -0.3217     1.2426 C.3     
  11 C11            7.4055     0.1912     0.8663 C.3     
  12 N12            7.2995     1.5936     0.4693 N.pl3   
  13 C13            6.1304     2.1988     0.0040 C.2     
  14 N14           -1.1792    -0.7319    -0.4208 N.pl3   
  15 C15           -1.7109    -1.2761    -1.5612 C.2     
  16 C16           -2.8641    -1.8746    -1.2069 C.2     
  17 N17           -3.0366    -1.7036     0.1122 N.2     
  18 C18           -2.0311    -1.0258     0.5955 C.2     
  19 C19           -3.7994    -2.6090    -2.1325 C.3     
  20 C20           -1.0108     2.9953     1.5118 C.3     
  21 O21           -1.1045     1.7270     0.8601 O.3     
  22 C22            8.3261     2.6382     0.4822 C.3     
  23 O23            7.7783     3.6482    -0.3905 O.3     
  24 N24            6.3863     3.3741    -0.4683 N.2     
  25 C25            8.5164     3.1912     1.8960 C.3     
  26 O26            9.5218     4.2066     1.8790 O.3     
  27 C27            9.6280     2.1116    -0.0645 C.2     
  28 N28           10.7313     2.7933    -0.1848 N.2     
  29 C29           11.6774     1.9937    -0.7081 C.2     
  30 C30           11.1244     0.7863    -0.9106 C.2     
  31 O31            9.8428     0.8636    -0.5016 O.3     
  32 C32            5.6370    -0.3359     2.7246 C.3     
  33 C33            5.9254    -1.6498     1.9951 C.3     
  34 H34            1.1661    -1.4875    -1.3726 H       
  35 H35            3.2726    -0.2352    -1.2023 H       
  36 H36            1.2382     2.8854     0.9313 H       
  37 H37            3.9435    -0.3815     0.6091 H       
  38 H38            5.1248    -0.4759    -0.7238 H       
  39 H39            3.6429     3.2396    -0.0155 H       
  40 H40            8.0708     0.1038     1.7252 H       
  41 H41            7.7986    -0.3950     0.0356 H       
  42 H42           -1.2867    -1.2327    -2.5535 H       
  43 H43           -1.9020    -0.7401     1.6290 H       
  44 H44           -3.5159    -3.6606    -2.1762 H       
  45 H45           -4.8204    -2.5231    -1.7606 H       
  46 H46           -3.7385    -2.1746    -3.1303 H       
  47 H47           -0.3081     2.9261     2.3422 H       
  48 H48           -0.6610     3.7441     0.8012 H       
  49 H49           -1.9920     3.2831     1.8894 H       
  50 H50            7.5769     3.6160     2.2495 H       
  51 H51            8.8247     2.3858     2.5628 H       
  52 H52            9.6953     4.6028     2.7439 H       
  53 H53           12.6978     2.2721    -0.9267 H       
  54 H54           11.6157    -0.0837    -1.3206 H       
  55 H55            6.3836     0.0199     3.4347 H       
  56 H56            4.6005    -0.1219     2.9852 H       
  57 H57            5.0786    -2.3000     1.7755 H       
  58 H58            6.8617    -2.1582     2.2250 H       
@<TRIPOS>BOND
   1    1    2 ar
   2    1    6 ar
   3    1   21 1
   4    2    3 ar
   5    2   14 1
   6    3    4 ar
   7    3   34 1
   8    4    5 ar
   9    4   35 1
  10    5    6 ar
  11    5    9 1
  12    6   36 1
  13    7    8 1
  14    7   10 1
  15    7   37 1
  16    7   38 1
  17    8    9 2
  18    8   13 1
  19    9   39 1
  20   10   11 1
  21   10   32 1
  22   10   33 1
  23   11   12 1
  24   11   40 1
  25   11   41 1
  26   12   13 1
  27   12   22 1
  28   13   24 2
  29   14   15 1
  30   14   18 1
  31   15   16 2
  32   15   42 1
  33   16   17 1
  34   16   19 1
  35   17   18 2
  36   18   43 1
  37   19   44 1
  38   19   45 1
  39   19   46 1
  40   20   21 1
  41   20   47 1
  42   20   48 1
  43   20   49 1
  44   22   23 1
  45   22   25 1
  46   22   27 1
  47   23   24 1
  48   25   26 1
  49   25   50 1
  50   25   51 1
  51   26   52 1
  52   27   28 2
  53   27   31 1
  54   28   29 1
  55   29   30 2
  56   29   53 1
  57   30   31 1
  58   30   54 1
  59   32   33 1
  60   32   55 1
  61   32   56 1
  62   33   57 1
  63   33   58 1

#	End of record

