#	Name: ASD04230034
#	Creating user name:	WinNT
#	Creation time:	15. 06. 2019 20:48

#	Modifying user name:	WinNT
#	Modification time:	15. 06. 2019 20:48

#	Program:	/corina/corina34_cracker 3.40 0067  02.08.2006

@<TRIPOS>MOLECULE
ASD04230034
  32   33    0    0    0
SMALL
NO_CHARGES


@<TRIPOS>ATOM
   1 N1            -0.0169     1.3927     0.0097 N.pl3   
   2 C2             1.2259    -2.0738    -0.0199 C.ar    
   3 C3             1.2122    -0.6813    -0.0132 C.ar    
   4 C4             0.0021    -0.0041     0.0020 C.ar    
   5 C5            -1.1920    -0.7157     0.0101 C.ar    
   6 C6            -1.1771    -2.0973     0.0034 C.ar    
   7 C7             0.0237    -2.7790    -0.0117 C.ar    
   8 C8             2.5168    -2.8048    -0.0422 C.ar    
   9 C9             2.5296    -4.1987    -0.0489 C.ar    
  10 C10            3.7348    -4.8765    -0.0702 C.ar    
  11 C11            4.9327    -4.1658    -0.0850 C.ar    
  12 C12            4.9187    -2.7796    -0.0783 C.ar    
  13 C13            3.7178    -2.0991    -0.0624 C.ar    
  14 O14            6.1174    -4.8326    -0.1055 O.3     
  15 C15            7.3071    -4.0412    -0.1198 C.3     
  16 O16            3.7505    -6.2363    -0.0763 O.3     
  17 C17            2.4849    -6.8998    -0.0599 C.3     
  18 H18            0.8165     1.8891     0.0044 H       
  19 H19           -0.8634     1.8662     0.0163 H       
  20 H20            2.1411    -0.1305    -0.0191 H       
  21 H21           -2.1339    -0.1873     0.0219 H       
  22 H22           -2.1074    -2.6458     0.0104 H       
  23 H23            0.0313    -3.8589    -0.0169 H       
  24 H24            1.5999    -4.7483    -0.0371 H       
  25 H25            5.8490    -2.2312    -0.0898 H       
  26 H26            3.7094    -1.0191    -0.0614 H       
  27 H27            7.3384    -3.4160     0.7725 H       
  28 H28            8.1787    -4.6957    -0.1356 H       
  29 H29            7.3119    -3.4083    -1.0072 H       
  30 H30            1.9383    -6.6173     0.8398 H       
  31 H31            1.9111    -6.6096    -0.9399 H       
  32 H32            2.6402    -7.9787    -0.0669 H       
@<TRIPOS>BOND
   1    1    4 1
   2    1   18 1
   3    1   19 1
   4    2    3 ar
   5    2    7 ar
   6    2    8 1
   7    3    4 ar
   8    3   20 1
   9    4    5 ar
  10    5    6 ar
  11    5   21 1
  12    6    7 ar
  13    6   22 1
  14    7   23 1
  15    8    9 ar
  16    8   13 ar
  17    9   10 ar
  18    9   24 1
  19   10   11 ar
  20   10   16 1
  21   11   12 ar
  22   11   14 1
  23   12   13 ar
  24   12   25 1
  25   13   26 1
  26   14   15 1
  27   15   27 1
  28   15   28 1
  29   15   29 1
  30   16   17 1
  31   17   30 1
  32   17   31 1
  33   17   32 1

#	End of record

