#	Name: ASD01918167
#	Creating user name:	WinNT
#	Creation time:	15. 06. 2019 20:10

#	Modifying user name:	WinNT
#	Modification time:	15. 06. 2019 20:10

#	Program:	/corina/corina34_cracker 3.40 0067  02.08.2006

@<TRIPOS>MOLECULE
ASD01918167
  41   44    0    0    0
SMALL
NO_CHARGES


@<TRIPOS>ATOM
   1 C1             0.0104     1.3777    -0.2851 C.ar    
   2 C2             0.0300    -0.0008    -0.3031 C.ar    
   3 C3             1.2155    -0.6829    -0.0783 C.ar    
   4 C4             2.3877     0.0151     0.1664 C.ar    
   5 C5             2.3811     1.3936     0.1871 C.ar    
   6 C6             1.1891     2.0872    -0.0394 C.ar    
   7 C7             1.1755     3.5190    -0.0198 C.1     
   8 C8             1.1644     4.6928    -0.0037 C.1     
   9 C9             1.1509     6.1246     0.0160 C.ar    
  10 N10           -0.0520     8.1421    -0.1856 N.ar    
  11 C11           -0.0368     6.8252    -0.2035 C.ar    
  12 C12            2.3299     6.8448     0.2619 C.ar    
  13 C13            2.2660     8.2234     0.2711 C.ar    
  14 C14            1.0448     8.8497     0.0383 C.ar    
  15 N15            0.9743    10.2408     0.0468 N.am    
  16 C16            0.1305    12.4217     0.5630 C.3     
  17 C17           -0.2798    11.0085     0.0693 C.3     
  18 C18            2.0439    11.0551     0.0412 C.2     
  19 C19            1.5976    12.5003     0.0930 C.3     
  20 O20            3.1983    10.6854     0.0009 O.2     
  21 C21           -0.7700    11.1988    -1.3753 C.3     
  22 C22           -0.7307    13.3988    -0.2501 C.3     
  23 C23           -1.0423    12.6948    -1.5787 C.3     
  24 H24            0.0248    12.5460     1.6407 H       
  25 H25           -1.0293    10.5494     0.7139 H       
  26 F26            1.2284    -2.0337    -0.0972 F       
  27 H27           -0.9131     1.9081    -0.4648 H       
  28 H28           -0.8803    -0.5503    -0.4925 H       
  29 H29            3.3082    -0.5221     0.3416 H       
  30 H30            3.2950     1.9364     0.3782 H       
  31 H31           -0.9515     6.2822    -0.3902 H       
  32 H32            3.2641     6.3329     0.4398 H       
  33 H33            3.1535     8.8098     0.4573 H       
  34 H34            1.6582    12.9549    -0.8958 H       
  35 H35            2.1988    13.0602     0.8095 H       
  36 H36           -0.0026    10.8643    -2.0734 H       
  37 H37           -1.6873    10.6313    -1.5324 H       
  38 H38           -1.6554    13.6168     0.2841 H       
  39 H39           -0.1783    14.3201    -0.4351 H       
  40 H40           -0.3971    13.0854    -2.3656 H       
  41 H41           -2.0884    12.8486    -1.8434 H       
@<TRIPOS>BOND
   1    1    2 ar
   2    1    6 ar
   3    1   27 1
   4    2    3 ar
   5    2   28 1
   6    3    4 ar
   7    3   26 1
   8    4    5 ar
   9    4   29 1
  10    5    6 ar
  11    5   30 1
  12    6    7 1
  13    7    8 3
  14    8    9 1
  15    9   12 ar
  16    9   11 ar
  17   10   11 ar
  18   10   14 ar
  19   11   31 1
  20   12   13 ar
  21   12   32 1
  22   13   14 ar
  23   13   33 1
  24   14   15 1
  25   15   18 am
  26   15   17 1
  27   16   17 1
  28   16   19 1
  29   16   22 1
  30   16   24 1
  31   17   21 1
  32   17   25 1
  33   18   19 1
  34   18   20 2
  35   19   34 1
  36   19   35 1
  37   21   23 1
  38   21   36 1
  39   21   37 1
  40   22   23 1
  41   22   38 1
  42   22   39 1
  43   23   40 1
  44   23   41 1

#	End of record

