#	Name: ASD04660007
#	Creating user name:	WinNT
#	Creation time:	15. 06. 2019 20:52

#	Modifying user name:	WinNT
#	Modification time:	15. 06. 2019 20:52

#	Program:	/corina/corina34_cracker 3.40 0067  02.08.2006

@<TRIPOS>MOLECULE
ASD04660007
  23   23    0    0    0
SMALL
NO_CHARGES


@<TRIPOS>ATOM
   1 C1            -0.0167     1.3781     0.0096 C.ar    
   2 C2             0.0021    -0.0041     0.0020 C.ar    
   3 C3             1.2084    -0.6789    -0.0132 C.ar    
   4 C4             2.3960     0.0285    -0.0212 C.ar    
   5 C5             2.3773     1.4107    -0.0145 C.ar    
   6 C6             1.1709     2.0855     0.0021 C.ar    
   7 C7             1.1505     3.5924     0.0089 C.3     
   8 C8             0.8770     4.1051    -1.4065 C.3     
   9 O9             0.1219     4.0508     0.8886 O.3     
  10 N10            0.9754     5.5707    -1.4239 N.3     
  11 N11            1.2285    -2.1589    -0.0203 N.pl3   
  12 O12            0.1821    -2.7822    -0.0128 O.2     
  13 O13            2.2914    -2.7535    -0.0337 O.2     
  14 H14           -0.9592     1.9054     0.0170 H       
  15 H15           -0.9258    -0.5567     0.0083 H       
  16 H16            3.3385    -0.4987    -0.0324 H       
  17 H17            3.3051     1.9634    -0.0201 H       
  18 H18            2.1151     3.9673     0.3511 H       
  19 H19            1.6105     3.6835    -2.0937 H       
  20 H20           -0.1244     3.8045    -1.7147 H       
  21 H21           -0.7655     3.7545     0.6443 H       
  22 H22            1.8735     5.8769    -1.0806 H       
  23 H23            0.7988     5.9340    -2.3485 H       
@<TRIPOS>BOND
   1    1    2 ar
   2    1    6 ar
   3    1   14 1
   4    2    3 ar
   5    2   15 1
   6    3    4 ar
   7    3   11 1
   8    4    5 ar
   9    4   16 1
  10    5    6 ar
  11    5   17 1
  12    6    7 1
  13    7    8 1
  14    7    9 1
  15    7   18 1
  16    8   10 1
  17    8   19 1
  18    8   20 1
  19    9   21 1
  20   10   22 1
  21   10   23 1
  22   11   12 2
  23   11   13 2

#	End of record

