#	Name: ASD03092973
#	Creating user name:	WinNT
#	Creation time:	15. 06. 2019 20:33

#	Modifying user name:	WinNT
#	Modification time:	15. 06. 2019 20:33

#	Program:	/corina/corina34_cracker 3.40 0067  02.08.2006

@<TRIPOS>MOLECULE
ASD03092973
  43   46    0    0    0
SMALL
NO_CHARGES


@<TRIPOS>ATOM
   1 C1            -0.0184     1.5028     0.0103 C.3     
   2 C2             0.0021    -0.0041     0.0020 C.2     
   3 S3             0.0103    -1.0333    -1.4278 S.3     
   4 C4             0.0339    -2.4278    -0.4399 C.2     
   5 N5             0.0346    -2.0983     0.8052 N.2     
   6 C6             0.0232    -0.8036     1.0876 C.2     
   7 C7             0.0296    -0.2800     2.4756 C.ar    
   8 C8             0.7033     0.9029     2.7738 C.ar    
   9 C9             0.7054     1.3856     4.0668 C.ar    
  10 C10            0.0405     0.6975     5.0658 C.ar    
  11 C11           -0.6298    -0.4772     4.7754 C.ar    
  12 C12           -0.6430    -0.9663     3.4850 C.ar    
  13 C13            0.0506    -3.8444    -0.9537 C.3     
  14 H14            0.4881    -4.5830    -0.2820 H       
  15 C15            0.2531    -4.0485    -2.4565 C.3     
  16 C16           -1.1217    -4.2923    -1.8290 C.3     
  17 H17           -1.9050    -3.5623    -2.0332 H       
  18 C18           -1.5827    -5.7210    -1.6969 C.ar    
  19 C19           -0.7068    -6.7571    -1.9618 C.ar    
  20 C20           -1.1297    -8.0676    -1.8406 C.ar    
  21 C21           -2.4282    -8.3419    -1.4541 C.ar    
  22 C22           -3.3038    -7.3058    -1.1883 C.ar    
  23 C23           -2.8797    -5.9953    -1.3054 C.ar    
  24 S24           -2.9675   -10.0124    -1.3007 S.o2    
  25 N25           -2.6650   -10.4840     0.2576 N.am    
  26 O26           -4.3809    -9.9927    -1.4468 O.2     
  27 O27           -2.1114   -10.7880    -2.1281 O.2     
  28 H28            1.0042     1.8801     0.0026 H       
  29 H29           -0.5455     1.8639    -0.8728 H       
  30 H30           -0.5286     1.8543     0.9071 H       
  31 H31            1.2230     1.4408     1.9947 H       
  32 H32            1.2275     2.3020     4.2991 H       
  33 H33            0.0451     1.0786     6.0763 H       
  34 H34           -1.1472    -1.0103     5.5593 H       
  35 H35           -1.1704    -1.8812     3.2586 H       
  36 H36            0.3743    -3.1581    -3.0735 H       
  37 H37            0.8236    -4.9216    -2.7734 H       
  38 H38            0.3077    -6.5428    -2.2637 H       
  39 H39           -0.4456    -8.8771    -2.0482 H       
  40 H40           -4.3184    -7.5201    -0.8867 H       
  41 H41           -3.5627    -5.1858    -1.0941 H       
  42 H42           -3.2321   -11.1464     0.6826 H       
  43 H43           -1.9207   -10.0980     0.7454 H       
@<TRIPOS>BOND
   1    1    2 1
   2    1   28 1
   3    1   29 1
   4    1   30 1
   5    2    6 2
   6    2    3 1
   7    3    4 1
   8    4    5 2
   9    4   13 1
  10    5    6 1
  11    6    7 1
  12    7   12 ar
  13    7    8 ar
  14    8    9 ar
  15    8   31 1
  16    9   10 ar
  17    9   32 1
  18   10   11 ar
  19   10   33 1
  20   11   12 ar
  21   11   34 1
  22   12   35 1
  23   13   14 1
  24   13   16 1
  25   13   15 1
  26   15   16 1
  27   15   36 1
  28   15   37 1
  29   16   17 1
  30   16   18 1
  31   18   23 ar
  32   18   19 ar
  33   19   20 ar
  34   19   38 1
  35   20   21 ar
  36   20   39 1
  37   21   22 ar
  38   21   24 1
  39   22   23 ar
  40   22   40 1
  41   23   41 1
  42   24   25 am
  43   24   26 2
  44   24   27 2
  45   25   42 1
  46   25   43 1

#	End of record

