#	Name: ASD01209062
#	Creating user name:	WinNT
#	Creation time:	15. 06. 2019 19:10

#	Modifying user name:	WinNT
#	Modification time:	15. 06. 2019 19:10

#	Program:	/corina/corina34_cracker 3.40 0067  02.08.2006

@<TRIPOS>MOLECULE
ASD01209062
  46   47    0    0    0
SMALL
NO_CHARGES


@<TRIPOS>ATOM
   1 C1            -0.0167     1.3791     0.0096 C.ar    
   2 C2             0.0021    -0.0041     0.0020 C.ar    
   3 C3            -1.1857    -0.7112     0.0100 C.ar    
   4 C4            -2.3919    -0.0365     0.0257 C.ar    
   5 C5            -2.4113     1.3460     0.0333 C.ar    
   6 C6            -1.2245     2.0540     0.0306 C.ar    
   7 S7             1.5396    -0.8644    -0.0185 S.o2    
   8 O8             2.2790    -0.2861     1.0483 O.2     
   9 O9             1.1734    -2.2372     0.0037 O.2     
  10 C10           -3.7269     2.0809     0.0503 C.3     
  11 C11           -4.0312     2.5337     1.4551 C.2     
  12 C12           -4.4979     1.5363     2.4838 C.3     
  13 O13           -3.9010     3.6959     1.7564 O.2     
  14 C14           -4.1482     2.0458     3.8835 C.3     
  15 C15           -6.0132     1.3575     2.3700 C.3     
  16 O16           -3.6480     3.2188    -0.8104 O.3     
  17 C17           -4.8944     3.5845    -1.4061 C.3     
  18 C18           -4.9330     5.1020    -1.6582 C.3     
  19 C19           -5.1021     5.2918    -3.1798 C.3     
  20 C20           -5.7504     3.9688    -3.6579 C.3     
  21 C21           -5.0414     2.9051    -2.7833 C.3     
  22 Cl22           1.4746     2.2678     0.0002 Cl      
  23 C23            2.2807    -0.4290    -1.6160 C.3     
  24 H24           -1.1712    -1.7911     0.0037 H       
  25 H25           -3.3197    -0.5894     0.0316 H       
  26 H26           -1.2398     3.1339     0.0365 H       
  27 H27           -4.5185     1.4169    -0.2969 H       
  28 H28           -4.0052     0.5794     2.3119 H       
  29 H29           -4.6409     3.0027     4.0555 H       
  30 H30           -4.4858     1.3244     4.6276 H       
  31 H31           -3.0687     2.1732     3.9646 H       
  32 H32           -6.3508     0.6361     3.1141 H       
  33 H33           -6.5059     2.3144     2.5420 H       
  34 H34           -6.2623     0.9945     1.3729 H       
  35 H35           -5.7187     3.2931    -0.7553 H       
  36 H36           -5.7766     5.5469    -1.1305 H       
  37 H37           -4.0010     5.5595    -1.3262 H       
  38 H38           -5.7594     6.1359    -3.3883 H       
  39 H39           -4.1324     5.4354    -3.6565 H       
  40 H40           -6.8235     3.9733    -3.4665 H       
  41 H41           -5.5461     3.7984    -4.7149 H       
  42 H42           -4.0619     2.6633    -3.1959 H       
  43 H43           -5.6544     2.0075    -2.7024 H       
  44 H44            2.4179     0.6510    -1.6705 H       
  45 H45            3.2470    -0.9235    -1.7151 H       
  46 H46            1.6224    -0.7528    -2.4221 H       
@<TRIPOS>BOND
   1    1    2 ar
   2    1   22 1
   3    1    6 ar
   4    2    3 ar
   5    2    7 1
   6    3    4 ar
   7    3   24 1
   8    4    5 ar
   9    4   25 1
  10    5    6 ar
  11    5   10 1
  12    6   26 1
  13    7    8 2
  14    7    9 2
  15    7   23 1
  16   10   11 1
  17   10   16 1
  18   10   27 1
  19   11   12 1
  20   11   13 2
  21   12   14 1
  22   12   15 1
  23   12   28 1
  24   14   29 1
  25   14   30 1
  26   14   31 1
  27   15   32 1
  28   15   33 1
  29   15   34 1
  30   16   17 1
  31   17   18 1
  32   17   21 1
  33   17   35 1
  34   18   19 1
  35   18   36 1
  36   18   37 1
  37   19   20 1
  38   19   38 1
  39   19   39 1
  40   20   21 1
  41   20   40 1
  42   20   41 1
  43   21   42 1
  44   21   43 1
  45   23   44 1
  46   23   45 1
  47   23   46 1

#	End of record

