#	Name: ASD01884210
#	Creating user name:	WinNT
#	Creation time:	15. 06. 2019 19:47

#	Modifying user name:	WinNT
#	Modification time:	15. 06. 2019 19:47

#	Program:	/corina/corina34_cracker 3.40 0067  02.08.2006

@<TRIPOS>MOLECULE
ASD01884210
  48   51    0    0    0
SMALL
NO_CHARGES


@<TRIPOS>ATOM
   1 S1            -0.0219     1.7672     0.0118 S.3     
   2 C2             0.0021    -0.0041     0.0020 C.2     
   3 N3             1.2907    -0.3577    -0.0122 N.am    
   4 C4             2.2519     0.6365    -0.0160 C.ar    
   5 C5             1.7391     1.9357    -0.0042 C.ar    
   6 C6             2.5666     3.0413    -0.0061 C.ar    
   7 C7             3.9491     2.8718    -0.0202 C.ar    
   8 C8             4.4761     1.5802    -0.0322 C.ar    
   9 C9             3.6480     0.4853    -0.0306 C.ar    
  10 O10           -0.9607    -0.7487     0.0078 O.2     
  11 C11            4.8501     4.0505    -0.0230 C.ar    
  12 C12            5.4919     6.1751    -0.9378 C.ar    
  13 C13            6.5321     6.2495    -0.0287 C.ar    
  14 C14            5.9025     4.1282     0.8868 C.ar    
  15 C15            1.6774    -1.7707    -0.0230 C.3     
  16 C16            1.7987    -2.2552    -1.4692 C.3     
  17 C17            2.3095    -3.6794    -1.6966 C.3     
  18 C18            0.8340    -3.3493    -1.9309 C.3     
  19 F19            3.1072    -3.9074    -2.8230 F       
  20 F20            2.6298    -4.4390    -0.5662 F       
  21 C21            4.6505     5.0813    -0.9395 C.ar    
  22 C22            6.7380     5.2270     0.8794 C.ar    
  23 C23            6.1279     3.0151     1.8773 C.3     
  24 C24            5.2738     7.2932    -1.9244 C.3     
  25 C25            5.7446     8.6135    -1.3111 C.3     
  26 C26            6.0702     7.0106    -3.1998 C.3     
  27 O27            3.8833     7.3843    -2.2414 O.3     
  28 H28            2.1429     4.0347     0.0029 H       
  29 H29            5.5469     1.4401    -0.0435 H       
  30 H30            4.0761    -0.5062    -0.0400 H       
  31 H31            7.1859     7.1091    -0.0285 H       
  32 H32            2.6364    -1.8888     0.4814 H       
  33 H33            0.9197    -2.3588     0.4949 H       
  34 H34            2.0846    -1.4958    -2.1970 H       
  35 H35            0.1129    -3.7239    -1.2044 H       
  36 H36            0.4848    -3.3098    -2.9627 H       
  37 H37            3.8390     5.0241    -1.6498 H       
  38 H38            7.5518     5.2901     1.5867 H       
  39 H39            6.7985     2.2732     1.4438 H       
  40 H40            6.5738     3.4214     2.7852 H       
  41 H41            5.1745     2.5456     2.1195 H       
  42 H42            6.8052     8.5440    -1.0693 H       
  43 H43            5.5868     9.4222    -2.0246 H       
  44 H44            5.1772     8.8148    -0.4025 H       
  45 H45            5.7347     6.0700    -3.6367 H       
  46 H46            5.9124     7.8194    -3.9134 H       
  47 H47            7.1308     6.9411    -2.9580 H       
  48 H48            3.3168     7.5625    -1.4782 H       
@<TRIPOS>BOND
   1    1    2 1
   2    1    5 1
   3    2    3 am
   4    2   10 2
   5    3    4 1
   6    3   15 1
   7    4    5 ar
   8    4    9 ar
   9    5    6 ar
  10    6    7 ar
  11    6   28 1
  12    7    8 ar
  13    7   11 1
  14    8    9 ar
  15    8   29 1
  16    9   30 1
  17   11   21 ar
  18   11   14 ar
  19   12   13 ar
  20   12   24 1
  21   12   21 ar
  22   13   22 ar
  23   13   31 1
  24   14   23 1
  25   14   22 ar
  26   15   16 1
  27   15   32 1
  28   15   33 1
  29   16   17 1
  30   16   18 1
  31   16   34 1
  32   17   18 1
  33   17   19 1
  34   17   20 1
  35   18   35 1
  36   18   36 1
  37   21   37 1
  38   22   38 1
  39   23   39 1
  40   23   40 1
  41   23   41 1
  42   24   25 1
  43   24   26 1
  44   24   27 1
  45   25   42 1
  46   25   43 1
  47   25   44 1
  48   26   45 1
  49   26   46 1
  50   26   47 1
  51   27   48 1

#	End of record

