#	Name: ASD02408087
#	Creating user name:	WinNT
#	Creation time:	15. 06. 2019 20:21

#	Modifying user name:	WinNT
#	Modification time:	15. 06. 2019 20:21

#	Program:	/corina/corina34_cracker 3.40 0067  02.08.2006

@<TRIPOS>MOLECULE
ASD02408087
  48   50    0    0    0
SMALL
NO_CHARGES


@<TRIPOS>ATOM
   1 C1            -0.0167     1.3779     0.0096 C.ar    
   2 C2             0.0021    -0.0041     0.0020 C.ar    
   3 C3             1.2780     2.1491     0.0014 C.3     
   4 C4             1.6960     2.4138    -1.4221 C.2     
   5 N5             2.8356     3.0950    -1.6501 N.am    
   6 N6             0.9446     1.9707    -2.3931 N.2     
   7 C7             1.2664     2.1757    -3.6768 C.2     
   8 C8             2.4394     2.8837    -3.9865 C.2     
   9 C9             3.2403     3.3495    -2.9123 C.2     
  10 N10            0.4585     1.6984    -4.6796 N.pl3   
  11 C11           -0.7628     0.9606    -4.3476 C.3     
  12 O12            4.2683     3.9691    -3.1242 O.2     
  13 C13           -1.1857    -0.7116     0.0096 C.ar    
  14 C14           -2.3919    -0.0369     0.0253 C.ar    
  15 C15           -2.4106     1.3455     0.0338 C.ar    
  16 C16           -1.2233     2.0528     0.0190 C.ar    
  17 O17           -0.6847    -0.4178    -6.3659 O.3     
  18 C18           -1.4735     0.5443    -5.6370 C.3     
  19 C19           -1.5882    -1.3994    -6.8909 C.3     
  20 O20           -2.9283    -1.0468    -6.5084 O.3     
  21 C21           -2.7727    -0.2370    -5.3184 C.3     
  22 C22           -1.4810    -1.4326    -8.4168 C.3     
  23 C23           -1.2372    -2.7764    -6.3240 C.3     
  24 C24           -1.1653    -2.2184     0.0003 C.3     
  25 C25            2.8182     3.1236    -5.3464 C.1     
  26 N26            3.1188     3.3140    -6.4253 N.1     
  27 H27            0.9446    -0.5313    -0.0102 H       
  28 H28            1.1397     3.0969     0.5217 H       
  29 H29            2.0505     1.5677     0.5048 H       
  30 H30            3.3691     3.4052    -0.9017 H       
  31 H31            0.6966     1.8499    -5.6076 H       
  32 H32           -0.5052     0.0718    -3.7716 H       
  33 H33           -1.4229     1.5969    -3.7581 H       
  34 H34           -3.3198    -0.5895     0.0305 H       
  35 H35           -3.3531     1.8727     0.0456 H       
  36 H36           -1.2379     3.1327     0.0256 H       
  37 H37           -1.6870     1.4157    -6.2562 H       
  38 H38           -2.6452    -0.8623    -4.4347 H       
  39 H39           -3.6163     0.4422    -5.1955 H       
  40 H40           -0.4613    -1.6891    -8.7039 H       
  41 H41           -2.1689    -2.1796    -8.8131 H       
  42 H42           -1.7367    -0.4529    -8.8204 H       
  43 H43           -1.3191    -2.7536    -5.2373 H       
  44 H44           -1.9255    -3.5205    -6.7247 H       
  45 H45           -0.2168    -3.0361    -6.6060 H       
  46 H46           -1.1501    -2.5879     1.0257 H       
  47 H47           -2.0553    -2.5907    -0.5069 H       
  48 H48           -0.2756    -2.5665    -0.5245 H       
@<TRIPOS>BOND
   1    1    2 ar
   2    1    3 1
   3    1   16 ar
   4    2   13 ar
   5    2   27 1
   6    3    4 1
   7    3   28 1
   8    3   29 1
   9    4    5 1
  10    4    6 2
  11    5    9 am
  12    5   30 1
  13    6    7 1
  14    7    8 2
  15    7   10 1
  16    8    9 1
  17    8   25 1
  18    9   12 2
  19   10   11 1
  20   10   31 1
  21   11   18 1
  22   11   32 1
  23   11   33 1
  24   13   14 ar
  25   13   24 1
  26   14   15 ar
  27   14   34 1
  28   15   16 ar
  29   15   35 1
  30   16   36 1
  31   17   18 1
  32   17   19 1
  33   18   21 1
  34   18   37 1
  35   19   20 1
  36   19   22 1
  37   19   23 1
  38   20   21 1
  39   21   38 1
  40   21   39 1
  41   22   40 1
  42   22   41 1
  43   22   42 1
  44   23   43 1
  45   23   44 1
  46   23   45 1
  47   24   46 1
  48   24   47 1
  49   24   48 1
  50   25   26 3

#	End of record

