#	Name: ASD02039075
#	Creating user name:	WinNT
#	Creation time:	15. 06. 2019 20:17

#	Modifying user name:	WinNT
#	Modification time:	15. 06. 2019 20:17

#	Program:	/corina/corina34_cracker 3.40 0067  02.08.2006

@<TRIPOS>MOLECULE
ASD02039075
  39   42    0    0    0
SMALL
NO_CHARGES


@<TRIPOS>ATOM
   1 N1             0.0234     1.2847    -0.3605 N.2     
   2 N2             0.0396    -0.0018    -0.3616 N.2     
   3 C3             1.2243     1.7332    -0.0874 C.2     
   4 O4             2.0202     0.6620     0.0885 O.3     
   5 C5             1.2408    -0.4221    -0.0917 C.2     
   6 N6             1.6034     3.0606     0.0032 N.pl3   
   7 C7             0.6399     4.0709    -0.0873 C.ar    
   8 C8             1.6806    -1.8604     0.0023 C.3     
   9 O9             2.1166    -2.3101    -1.2821 O.3     
  10 C10            2.5492    -3.5959    -1.3717 C.ar    
  11 C11            2.9837    -4.0915    -2.5849 C.ar    
  12 C12            2.5574    -4.4049    -0.2382 C.ar    
  13 C13            2.9931    -5.7097    -0.3100 C.ar    
  14 C14            3.4300    -6.2304    -1.5232 C.ar    
  15 C15            3.4280    -5.4148    -2.6706 C.ar    
  16 C16           -0.6621     3.8293     0.3305 C.ar    
  17 C17            0.9858     5.3188    -0.5898 C.ar    
  18 C18            0.0337     6.3153    -0.6780 C.ar    
  19 C19           -1.2654     6.0718    -0.2656 C.ar    
  20 C20           -1.6122     4.8294     0.2406 C.ar    
  21 N21            3.8699    -7.5354    -1.6160 N.am    
  22 C22            4.2924    -8.0412    -2.7878 C.2     
  23 C23            4.3055    -7.2665    -3.9674 C.2     
  24 C24            3.8901    -5.9760    -3.9415 C.2     
  25 O25            4.6740    -9.1980    -2.8325 O.2     
  26 F26           -2.1951     7.0482    -0.3524 F       
  27 Cl27          -3.2418     4.5268     0.7569 Cl      
  28 H28            2.5372     3.2908     0.1294 H       
  29 H29            2.5017    -1.9434     0.7144 H       
  30 H30            0.8451    -2.4746     0.3380 H       
  31 H31            2.9802    -3.4614    -3.4620 H       
  32 H32            2.2191    -4.0053     0.7065 H       
  33 H33            2.9958    -6.3280     0.5755 H       
  34 H34           -0.9323     2.8610     0.7250 H       
  35 H35            1.9991     5.5099    -0.9110 H       
  36 H36            0.3028     7.2855    -1.0687 H       
  37 H37            3.8747    -8.0956    -0.8241 H       
  38 H38            4.6511    -7.7020    -4.8932 H       
  39 H39            3.8967    -5.3762    -4.8396 H       
@<TRIPOS>BOND
   1    1    2 1
   2    1    3 2
   3    2    5 2
   4    3    4 1
   5    3    6 1
   6    4    5 1
   7    5    8 1
   8    6    7 1
   9    6   28 1
  10    7   16 ar
  11    7   17 ar
  12    8    9 1
  13    8   29 1
  14    8   30 1
  15    9   10 1
  16   10   11 ar
  17   10   12 ar
  18   11   15 ar
  19   11   31 1
  20   12   13 ar
  21   12   32 1
  22   13   14 ar
  23   13   33 1
  24   14   15 ar
  25   14   21 1
  26   15   24 1
  27   16   20 ar
  28   16   34 1
  29   17   18 ar
  30   17   35 1
  31   18   19 ar
  32   18   36 1
  33   19   20 ar
  34   19   26 1
  35   20   27 1
  36   21   22 am
  37   21   37 1
  38   22   23 1
  39   22   25 2
  40   23   24 2
  41   23   38 1
  42   24   39 1

#	End of record

