#	Name: ASD01910315
#	Creating user name:	WinNT
#	Creation time:	15. 06. 2019 19:55

#	Modifying user name:	WinNT
#	Modification time:	15. 06. 2019 19:55

#	Program:	/corina/corina34_cracker 3.40 0067  02.08.2006

@<TRIPOS>MOLECULE
ASD01910315
  56   59    0    0    0
SMALL
NO_CHARGES


@<TRIPOS>ATOM
   1 C1             8.7257    15.9856     0.8160 C.ar    
   2 C2             9.3760    16.6691    -0.1964 C.ar    
   3 C3            10.0435    15.9759    -1.1909 C.ar    
   4 C4            10.0647    14.5970    -1.1798 C.ar    
   5 C5             9.4103    13.8997    -0.1605 C.ar    
   6 C6             8.7386    14.6068     0.8407 C.ar    
   7 C7             9.4274    12.4679    -0.1423 C.1     
   8 C8             9.4414    11.2941    -0.1274 C.1     
   9 C9             9.4585     9.8623    -0.1093 C.ar    
  10 C10            8.8022     9.1674     0.9127 C.ar    
  11 C11            8.8190     7.8019     0.9295 C.ar    
  12 C12            9.4920     7.0984    -0.0739 C.ar    
  13 C13           10.1479     7.7920    -1.0952 C.ar    
  14 C14           10.1267     9.1574    -1.1167 C.ar    
  15 C15            9.5105     5.6223    -0.0546 C.2     
  16 N16           10.6794     4.9615    -0.1707 N.am    
  17 O17            8.4713     5.0028     0.0660 O.2     
  18 C18           11.9331     5.6925    -0.4000 C.3     
  19 C19           12.9481     5.2783     0.6700 C.3     
  20 C20           13.0982     3.7553     0.6627 C.3     
  21 C21           11.7528     3.1068     0.9965 C.3     
  22 C22           10.7250     3.4968    -0.0642 C.3     
  23 O23           13.5260     3.3253    -0.6312 O.3     
  24 C24           14.1214     3.3467     1.6909 C.ar    
  25 C25           14.8812     2.2084     1.4941 C.ar    
  26 C26           15.8197     1.8317     2.4352 C.ar    
  27 C27           15.9995     2.5966     3.5785 C.ar    
  28 C28           15.2359     3.7383     3.7737 C.ar    
  29 C29           14.3026     4.1138     2.8269 C.ar    
  30 O30           16.9219     2.2279     4.5060 O.3     
  31 C31           17.0528     3.0628     5.6583 C.3     
  32 H32            8.2107    16.5334     1.5913 H       
  33 H33            9.3622    17.7489    -0.2107 H       
  34 H34           10.5488    16.5161    -1.9779 H       
  35 H35           10.5855    14.0573    -1.9570 H       
  36 H36            8.2309    14.0747     1.6316 H       
  37 H37            8.2829     9.7107     1.6882 H       
  38 H38            8.3125     7.2654     1.7182 H       
  39 H39           10.6676     7.2480    -1.8700 H       
  40 H40           10.6334     9.6932    -1.9057 H       
  41 H41           12.3232     5.4479    -1.3879 H       
  42 H42           11.7484     6.7646    -0.3329 H       
  43 H43           13.9119     5.7399     0.4552 H       
  44 H44           12.5981     5.6046     1.6493 H       
  45 H45           11.8658     2.0228     1.0141 H       
  46 H46           11.4140     3.4536     1.9727 H       
  47 H47            9.7433     3.1192     0.2220 H       
  48 H48           11.0148     3.0747    -1.0265 H       
  49 H49           13.6422     2.3684    -0.7092 H       
  50 H50           14.7406     1.6131     0.6040 H       
  51 H51           16.4127     0.9423     2.2811 H       
  52 H52           15.3740     4.3354     4.6629 H       
  53 H53           13.7079     5.0025     2.9784 H       
  54 H54           17.8209     2.6562     6.3162 H       
  55 H55           17.3355     4.0687     5.3479 H       
  56 H56           16.1019     3.1004     6.1897 H       
@<TRIPOS>BOND
   1    1    2 ar
   2    1    6 ar
   3    1   32 1
   4    2    3 ar
   5    2   33 1
   6    3    4 ar
   7    3   34 1
   8    4    5 ar
   9    4   35 1
  10    5    6 ar
  11    5    7 1
  12    6   36 1
  13    7    8 3
  14    8    9 1
  15    9   10 ar
  16    9   14 ar
  17   10   11 ar
  18   10   37 1
  19   11   12 ar
  20   11   38 1
  21   12   13 ar
  22   12   15 1
  23   13   14 ar
  24   13   39 1
  25   14   40 1
  26   15   16 am
  27   15   17 2
  28   16   18 1
  29   16   22 1
  30   18   19 1
  31   18   41 1
  32   18   42 1
  33   19   20 1
  34   19   43 1
  35   19   44 1
  36   20   21 1
  37   20   23 1
  38   20   24 1
  39   21   22 1
  40   21   45 1
  41   21   46 1
  42   22   47 1
  43   22   48 1
  44   23   49 1
  45   24   25 ar
  46   24   29 ar
  47   25   26 ar
  48   25   50 1
  49   26   27 ar
  50   26   51 1
  51   27   28 ar
  52   27   30 1
  53   28   29 ar
  54   28   52 1
  55   29   53 1
  56   30   31 1
  57   31   54 1
  58   31   55 1
  59   31   56 1

#	End of record

