#	Name: ASD01890293
#	Creating user name:	WinNT
#	Creation time:	15. 06. 2019 19:50

#	Modifying user name:	WinNT
#	Modification time:	15. 06. 2019 19:50

#	Program:	/corina/corina34_cracker 3.40 0067  02.08.2006

@<TRIPOS>MOLECULE
ASD01890293
  34   36    0    0    0
SMALL
NO_CHARGES


@<TRIPOS>ATOM
   1 C1            -0.0171     1.4133     0.0098 C.2     
   2 C2             0.0021    -0.0041     0.0020 C.2     
   3 C3             1.1837    -0.6651    -0.0128 C.2     
   4 O4             1.0290     2.0364     0.0032 O.2     
   5 C5             1.2036    -2.1309    -0.0209 C.ar    
   6 C6             0.0159    -2.8588    -0.0134 C.ar    
   7 C7             0.0393    -4.2453    -0.0211 C.ar    
   8 C8             1.2081    -4.9449    -0.0359 C.ar    
   9 C9             2.4444    -4.2772    -0.0441 C.ar    
  10 C10            3.6578    -4.9866    -0.0589 C.ar    
  11 C11            4.8363    -4.3044    -0.0661 C.ar    
  12 C12            4.8590    -2.9121    -0.0590 C.ar    
  13 C13            3.7004    -2.1928    -0.0441 C.ar    
  14 C14            2.4715    -2.8612    -0.0430 C.ar    
  15 C15           -1.3076     2.1351     0.0199 C.ar    
  16 C16           -1.3298     3.5314     0.0276 C.ar    
  17 C17           -2.5362     4.1988     0.0364 C.ar    
  18 C18           -3.7247     3.4872     0.0377 C.ar    
  19 C19           -3.7092     2.1020     0.0301 C.ar    
  20 C20           -2.5090     1.4233     0.0158 C.ar    
  21 Cl21          -5.2398     4.3347     0.0495 Cl      
  22 H22           -0.9258    -0.5567     0.0079 H       
  23 H23            2.1116    -0.1124    -0.0187 H       
  24 H24           -0.9308    -2.3392    -0.0013 H       
  25 H25           -0.8956    -4.7859    -0.0147 H       
  26 H26            1.1842    -6.0246    -0.0411 H       
  27 H27            3.6554    -6.0666    -0.0642 H       
  28 H28            5.7675    -4.8515    -0.0771 H       
  29 H29            5.8070    -2.3947    -0.0649 H       
  30 H30            3.7314    -1.1133    -0.0380 H       
  31 H31           -0.4038     4.0872     0.0269 H       
  32 H32           -2.5546     5.2787     0.0427 H       
  33 H33           -4.6390     1.5526     0.0312 H       
  34 H34           -2.4981     0.3434     0.0058 H       
@<TRIPOS>BOND
   1    1    2 1
   2    1    4 2
   3    1   15 1
   4    2    3 2
   5    2   22 1
   6    3    5 1
   7    3   23 1
   8    5    6 ar
   9    5   14 ar
  10    6    7 ar
  11    6   24 1
  12    7    8 ar
  13    7   25 1
  14    8    9 ar
  15    8   26 1
  16    9   10 ar
  17    9   14 ar
  18   10   11 ar
  19   10   27 1
  20   11   12 ar
  21   11   28 1
  22   12   13 ar
  23   12   29 1
  24   13   14 ar
  25   13   30 1
  26   15   16 ar
  27   15   20 ar
  28   16   17 ar
  29   16   31 1
  30   17   18 ar
  31   17   32 1
  32   18   19 ar
  33   18   21 1
  34   19   20 ar
  35   19   33 1
  36   20   34 1

#	End of record

