#	Name: ASD01812590
#	Creating user name:	WinNT
#	Creation time:	15. 06. 2019 19:28

#	Modifying user name:	WinNT
#	Modification time:	15. 06. 2019 19:28

#	Program:	/corina/corina34_cracker 3.40 0067  02.08.2006

@<TRIPOS>MOLECULE
ASD01812590
  40   43    0    0    0
SMALL
NO_CHARGES


@<TRIPOS>ATOM
   1 C1            -0.0178     1.4608     0.0101 C.3     
   2 N2             0.0021    -0.0041     0.0020 N.pl3   
   3 C3             0.0078    -0.7885    -1.0945 C.2     
   4 C4             0.0282    -2.0861    -0.6736 C.2     
   5 C5             0.0349    -2.0759     0.7348 C.2     
   6 N6             0.0245    -0.8309     1.1317 N.2     
   7 C7             0.0409    -3.2902    -1.5423 C.ar    
   8 C8             0.0380    -3.1518    -2.9283 C.ar    
   9 C9             0.0504    -4.2737    -3.7327 C.ar    
  10 C10            0.0652    -5.5345    -3.1656 C.ar    
  11 C11            0.0786    -6.7554    -4.0489 C.3     
  12 N12            1.4196    -7.3453    -4.0463 N.am    
  13 C13            2.3879    -7.0078    -4.9146 C.2     
  14 O14            2.3035    -6.1889    -5.8053 O.2     
  15 C15            3.6043    -7.8415    -4.5719 C.3     
  16 C16            3.1569    -8.6778    -3.3952 C.ar    
  17 C17            3.7903    -9.6287    -2.6278 C.ar    
  18 C18            3.1110   -10.2422    -1.5892 C.ar    
  19 C19            1.7981    -9.8968    -1.3272 C.ar    
  20 C20            1.1607    -8.9442    -2.0953 C.ar    
  21 C21            1.8398    -8.3177    -3.1382 C.ar    
  22 C22            0.0681    -5.6791    -1.7875 C.ar    
  23 F23            0.0826    -6.9135    -1.2385 F       
  24 C24            0.0616    -4.5616    -0.9739 C.ar    
  25 H25            1.0048     1.8381     0.0023 H       
  26 H26           -0.5450     1.8219    -0.8730 H       
  27 H27           -0.5280     1.8123     0.9069 H       
  28 H28           -0.0020    -0.4508    -2.1203 H       
  29 H29            0.0502    -2.9454     1.3751 H       
  30 H30            0.0258    -2.1678    -3.3733 H       
  31 H31            0.0481    -4.1663    -4.8074 H       
  32 H32           -0.6395    -7.4840    -3.6727 H       
  33 H33           -0.1912    -6.4710    -5.0660 H       
  34 H34            3.8788    -8.4798    -5.4118 H       
  35 H35            4.4394    -7.2004    -4.2894 H       
  36 H36            4.8158    -9.8961    -2.8358 H       
  37 H37            3.6052   -10.9890    -0.9855 H       
  38 H38            1.2684   -10.3756    -0.5169 H       
  39 H39            0.1348    -8.6803    -1.8848 H       
  40 H40            0.0684    -4.6741     0.1002 H       
@<TRIPOS>BOND
   1    1    2 1
   2    1   25 1
   3    1   26 1
   4    1   27 1
   5    2    6 1
   6    2    3 1
   7    3    4 2
   8    3   28 1
   9    4    5 1
  10    4    7 1
  11    5    6 2
  12    5   29 1
  13    7   24 ar
  14    7    8 ar
  15    8    9 ar
  16    8   30 1
  17    9   10 ar
  18    9   31 1
  19   10   11 1
  20   10   22 ar
  21   11   12 1
  22   11   32 1
  23   11   33 1
  24   12   21 1
  25   12   13 am
  26   13   14 2
  27   13   15 1
  28   15   16 1
  29   15   34 1
  30   15   35 1
  31   16   21 ar
  32   16   17 ar
  33   17   18 ar
  34   17   36 1
  35   18   19 ar
  36   18   37 1
  37   19   20 ar
  38   19   38 1
  39   20   21 ar
  40   20   39 1
  41   22   23 1
  42   22   24 ar
  43   24   40 1

#	End of record

