#	Name: ASD01420007
#	Creating user name:	WinNT
#	Creation time:	15. 06. 2019 19:20

#	Modifying user name:	WinNT
#	Modification time:	15. 06. 2019 19:20

#	Program:	/corina/corina34_cracker 3.40 0067  02.08.2006

@<TRIPOS>MOLECULE
ASD01420007
  56   59    0    0    0
SMALL
NO_CHARGES


@<TRIPOS>ATOM
   1 C1             2.4018     0.1973     1.0136 C.ar    
   2 C2             1.6916    -0.7926     0.3740 C.ar    
   3 C3             0.9443    -0.5046    -0.7740 C.ar    
   4 C4             0.9158     0.7917    -1.2772 C.ar    
   5 C5             2.3841     1.4980     0.5239 C.ar    
   6 O6             2.9685     2.6434     0.9325 O.3     
   7 C7             1.6348     1.7944    -0.6299 C.ar    
   8 C8             1.8292     3.2268    -0.8708 C.2     
   9 C9             2.6459     3.6659     0.1164 C.2     
  10 C10            3.1136     5.0587     0.2748 C.ar    
  11 C11            2.2067     6.1163     0.1831 C.ar    
  12 C12            2.6470     7.4140     0.3314 C.ar    
  13 C13            3.9907     7.6703     0.5713 C.ar    
  14 C14            4.8960     6.6212     0.6627 C.ar    
  15 C15            4.4626     5.3202     0.5222 C.ar    
  16 C16            1.2387     4.0458    -1.9896 C.3     
  17 C17            0.1863    -1.5777    -1.4515 C.2     
  18 C18            0.2141    -2.8132    -0.9718 C.2     
  19 C19           -0.5587    -3.9071    -1.6625 C.3     
  20 O20            4.4207     8.9509     0.7165 O.3     
  21 C21            5.8155     9.1430     0.9612 C.3     
  22 C22            6.1301    10.6412     0.9731 C.3     
  23 O23            6.1599     8.5752     2.2265 O.3     
  24 C24            5.4375     9.1264     3.3295 C.3     
  25 C25            5.7369    10.6239     3.4366 C.3     
  26 C26            5.3611    11.3074     2.1182 C.3     
  27 O27            7.5331    10.8330     1.1649 O.3     
  28 O28            5.7053    12.6928     2.1829 O.3     
  29 O29            4.9713    11.1889     4.5026 O.3     
  30 C30            5.8661     8.4267     4.6209 C.3     
  31 H31            2.9711    -0.0361     1.9012 H       
  32 H32            1.7111    -1.8007     0.7610 H       
  33 H33            0.3411     1.0193    -2.1628 H       
  34 H34            1.1618     5.9179    -0.0041 H       
  35 H35            1.9462     8.2327     0.2607 H       
  36 H36            5.9402     6.8247     0.8486 H       
  37 H37            5.1664     4.5046     0.5986 H       
  38 H38            0.3248     4.5284    -1.6433 H       
  39 H39            1.9554     4.8058    -2.3009 H       
  40 H40            1.0089     3.3956    -2.8337 H       
  41 H41           -0.3902    -1.3551    -2.3372 H       
  42 H42            0.7905    -3.0357    -0.0861 H       
  43 H43           -0.2007    -4.0141    -2.6865 H       
  44 H44           -0.4159    -4.8461    -1.1277 H       
  45 H45           -1.6185    -3.6525    -1.6729 H       
  46 H46            6.3929     8.6564     0.1751 H       
  47 H47            5.8272    11.0846     0.0246 H       
  48 H48            4.3687     8.9796     3.1738 H       
  49 H49            6.7992    10.7699     3.6326 H       
  50 H50            4.2896    11.2041     1.9465 H       
  51 H51            8.0825    10.4320     0.4776 H       
  52 H52            5.5007    13.1869     1.3772 H       
  53 H53            5.1549    10.7991     5.3683 H       
  54 H54            6.9348     8.5741     4.7766 H       
  55 H55            5.3150     8.8473     5.4620 H       
  56 H56            5.6538     7.3604     4.5441 H       
@<TRIPOS>BOND
   1    1    2 ar
   2    1    5 ar
   3    1   31 1
   4    2    3 ar
   5    2   32 1
   6    3    4 ar
   7    3   17 1
   8    4    7 ar
   9    4   33 1
  10    5    7 ar
  11    5    6 1
  12    6    9 1
  13    7    8 1
  14    8    9 2
  15    8   16 1
  16    9   10 1
  17   10   11 ar
  18   10   15 ar
  19   11   12 ar
  20   11   34 1
  21   12   13 ar
  22   12   35 1
  23   13   14 ar
  24   13   20 1
  25   14   15 ar
  26   14   36 1
  27   15   37 1
  28   16   38 1
  29   16   39 1
  30   16   40 1
  31   17   18 2
  32   17   41 1
  33   18   19 1
  34   18   42 1
  35   19   43 1
  36   19   44 1
  37   19   45 1
  38   20   21 1
  39   21   23 1
  40   21   22 1
  41   21   46 1
  42   22   26 1
  43   22   27 1
  44   22   47 1
  45   23   24 1
  46   24   25 1
  47   24   30 1
  48   24   48 1
  49   25   26 1
  50   25   29 1
  51   25   49 1
  52   26   28 1
  53   26   50 1
  54   27   51 1
  55   28   52 1
  56   29   53 1
  57   30   54 1
  58   30   55 1
  59   30   56 1

#	End of record

