#	Name: ASD01880884
#	Creating user name:	WinNT
#	Creation time:	15. 06. 2019 19:41

#	Modifying user name:	WinNT
#	Modification time:	15. 06. 2019 19:41

#	Program:	/corina/corina34_cracker 3.40 0067  02.08.2006

@<TRIPOS>MOLECULE
ASD01880884
  42   44    0    0    0
SMALL
NO_CHARGES


@<TRIPOS>ATOM
   1 N1            -0.0158     1.3134     0.0093 N.ar    
   2 C2             0.0021    -0.0041     0.0020 C.ar    
   3 N3             1.1313    -0.6835    -0.0124 N.ar    
   4 C4             2.3010    -0.0550    -0.0202 C.ar    
   5 C5             2.3188     1.3391    -0.0129 C.ar    
   6 C6             1.1111     2.0106     0.0022 C.ar    
   7 C7             3.6226     2.0948    -0.0208 C.3     
   8 O8             3.3591     3.4993    -0.0108 O.3     
   9 C9             4.4339     4.3278    -0.0162 C.ar    
  10 C10            4.2485     5.7069    -0.0071 C.ar    
  11 C11            5.3366     6.5439    -0.0122 C.ar    
  12 C12            6.6332     6.0191    -0.0264 C.ar    
  13 C13            6.8138     4.6333    -0.0351 C.ar    
  14 C14            5.7188     3.7981    -0.0251 C.ar    
  15 C15            5.4849     8.0450    -0.0053 C.3     
  16 N16            6.9273     8.3142    -0.0166 N.am    
  17 C17            7.5860     7.1427    -0.0287 C.2     
  18 O18            8.7963     7.0267    -0.0396 O.2     
  19 C19            8.2048     4.0536    -0.0510 C.3     
  20 C20            7.7758    10.0963     1.4276 C.3     
  21 C21            7.5474     9.6415    -0.0153 C.3     
  22 O22            3.4596    -0.7578    -0.0346 O.3     
  23 C23            3.3540    -2.1828    -0.0408 C.3     
  24 H24           -0.9344    -0.5420     0.0084 H       
  25 H25            1.0860     3.0903     0.0079 H       
  26 H26            4.2027     1.8277     0.8625 H       
  27 H27            4.1864     1.8373    -0.9174 H       
  28 H28            3.2500     6.1182     0.0035 H       
  29 H29            5.8590     2.7273    -0.0314 H       
  30 H30            5.0172     8.4717    -0.8926 H       
  31 H31            5.0329     8.4621     0.8945 H       
  32 H32            8.5497     3.9087     0.9727 H       
  33 H33            8.1930     3.0949    -0.5696 H       
  34 H34            8.8777     4.7379    -0.5677 H       
  35 H35            8.2372    11.0838     1.4286 H       
  36 H36            6.8202    10.1411     1.9500 H       
  37 H37            8.4328     9.3878     1.9322 H       
  38 H38            8.5030     9.5966    -0.5377 H       
  39 H39            6.8904    10.3499    -0.5198 H       
  40 H40            2.8230    -2.5117     0.8526 H       
  41 H41            2.8064    -2.5027    -0.9273 H       
  42 H42            4.3519    -2.6211    -0.0523 H       
@<TRIPOS>BOND
   1    1    2 ar
   2    1    6 ar
   3    2    3 ar
   4    2   24 1
   5    3    4 ar
   6    4    5 ar
   7    4   22 1
   8    5    6 ar
   9    5    7 1
  10    6   25 1
  11    7    8 1
  12    7   26 1
  13    7   27 1
  14    8    9 1
  15    9   10 ar
  16    9   14 ar
  17   10   11 ar
  18   10   28 1
  19   11   12 ar
  20   11   15 1
  21   12   13 ar
  22   12   17 1
  23   13   14 ar
  24   13   19 1
  25   14   29 1
  26   15   16 1
  27   15   30 1
  28   15   31 1
  29   16   17 am
  30   16   21 1
  31   17   18 2
  32   19   32 1
  33   19   33 1
  34   19   34 1
  35   20   21 1
  36   20   35 1
  37   20   36 1
  38   20   37 1
  39   21   38 1
  40   21   39 1
  41   22   23 1
  42   23   40 1
  43   23   41 1
  44   23   42 1

#	End of record

