#	Name: ASD03542002
#	Creating user name:	WinNT
#	Creation time:	15. 06. 2019 20:43

#	Modifying user name:	WinNT
#	Modification time:	15. 06. 2019 20:43

#	Program:	/corina/corina34_cracker 3.40 0067  02.08.2006

@<TRIPOS>MOLECULE
ASD03542002
  38   41    0    0    0
SMALL
NO_CHARGES


@<TRIPOS>ATOM
   1 C1             0.1290     1.2019    -1.3158 C.ar    
   2 C2             0.0750    -0.0928    -0.8160 C.ar    
   3 C3             1.2040    -0.6700    -0.2776 C.ar    
   4 C4             2.3908     0.0492    -0.2385 C.ar    
   5 C5             2.4578     1.3606    -0.7414 C.ar    
   6 C6             1.2852     1.9203    -1.2848 C.ar    
   7 S7             4.0121    -0.3213     0.3525 S.3     
   8 N8             4.7035     1.1707    -0.0513 N.2     
   9 C9             3.7971     1.9218    -0.5979 C.2     
  10 N10            4.0856     3.1875    -1.0225 N.2     
  11 C11            5.3014     3.6675    -0.8804 C.2     
  12 S12            6.6919     2.8317    -0.1676 S.3     
  13 C13            7.8127     4.1872    -0.3994 C.2     
  14 C14            7.0021     5.2300    -1.0358 C.2     
  15 N15            5.7395     4.9064    -1.2595 N.am    
  16 O16            7.4604     6.3154    -1.3416 O.2     
  17 C17            9.1268     4.2458    -0.0630 C.2     
  18 C18            9.8569     5.5145    -0.1733 C.ar    
  19 C19           11.1557     5.5384    -0.7074 C.ar    
  20 C20           11.8346     6.7420    -0.8064 C.ar    
  21 C21           11.2361     7.9127    -0.3810 C.ar    
  22 C22            9.9553     7.8948     0.1470 C.ar    
  23 C23            9.2610     6.7091     0.2477 C.ar    
  24 O24           11.7431     4.3879    -1.1241 O.3     
  25 C25           13.0654     4.4903    -1.6561 C.3     
  26 H26           -0.7600     1.6447    -1.7402 H       
  27 H27           -0.8516    -0.6466    -0.8492 H       
  28 H28            1.1659    -1.6764     0.1124 H       
  29 H29            1.3033     2.9254    -1.6797 H       
  30 H30            5.1337     5.5385    -1.6770 H       
  31 H31            9.6349     3.3589     0.2859 H       
  32 H32           12.8334     6.7653    -1.2164 H       
  33 H33           11.7706     8.8479    -0.4604 H       
  34 H34            9.4971     8.8156     0.4768 H       
  35 H35            8.2628     6.6999     0.6599 H       
  36 H36           13.4162     3.5011    -1.9505 H       
  37 H37           13.0572     5.1467    -2.5262 H       
  38 H38           13.7315     4.9010    -0.8973 H       
@<TRIPOS>BOND
   1    1    2 ar
   2    1    6 ar
   3    1   26 1
   4    2    3 ar
   5    2   27 1
   6    3    4 ar
   7    3   28 1
   8    4    5 ar
   9    4    7 1
  10    5    6 ar
  11    5    9 1
  12    6   29 1
  13    7    8 1
  14    8    9 2
  15    9   10 1
  16   10   11 2
  17   11   12 1
  18   11   15 1
  19   12   13 1
  20   13   14 1
  21   13   17 2
  22   14   15 am
  23   14   16 2
  24   15   30 1
  25   17   18 1
  26   17   31 1
  27   18   19 ar
  28   18   23 ar
  29   19   20 ar
  30   19   24 1
  31   20   21 ar
  32   20   32 1
  33   21   22 ar
  34   21   33 1
  35   22   23 ar
  36   22   34 1
  37   23   35 1
  38   24   25 1
  39   25   36 1
  40   25   37 1
  41   25   38 1

#	End of record

