#	Name: ASD03092452
#	Creating user name:	WinNT
#	Creation time:	15. 06. 2019 20:32

#	Modifying user name:	WinNT
#	Modification time:	15. 06. 2019 20:32

#	Program:	/corina/corina34_cracker 3.40 0067  02.08.2006

@<TRIPOS>MOLECULE
ASD03092452
  62   65    0    0    0
SMALL
NO_CHARGES


@<TRIPOS>ATOM
   1 S1             0.7555     1.5898     0.3014 S.3     
   2 C2             1.0021    -0.1005     0.3594 C.2     
   3 N3             2.2714    -0.3779     0.3101 N.2     
   4 C4             3.1036     0.6296     0.2286 C.2     
   5 C5             2.4951     1.8532     0.2073 C.2     
   6 C6             3.1678     3.1498     0.1208 C.2     
   7 O7             4.3825     3.2024     0.0600 O.2     
   8 N8             2.4426     4.2857     0.1083 N.am    
   9 C9             4.5991     0.4555     0.1642 C.3     
  10 O10            0.0147    -1.0211     0.4454 O.3     
  11 C11            0.4092    -2.3940     0.4831 C.3     
  12 C12            3.1161     5.5838     0.0217 C.3     
  13 S13            0.4398     8.4796    -0.6490 S.3     
  14 C14            0.6964     8.1275     1.0040 C.2     
  15 N15            1.5761     7.1800     1.1317 N.2     
  16 C16            2.0872     6.6849     0.0254 C.2     
  17 C17            1.6121     7.2464    -1.1060 C.2     
  18 C18            2.7053     7.5022    -4.6898 C.ar    
  19 C19            2.3436     7.8804    -3.4149 C.ar    
  20 C20            2.0048     6.8899    -2.4833 C.ar    
  21 C21            2.0498     5.5515    -2.8960 C.ar    
  22 C22            2.4225     5.2643    -4.1912 C.ar    
  23 N23            2.7344     6.2288    -5.0369 N.ar    
  24 C24            2.4752     3.8293    -4.6484 C.3     
  25 C25            3.0660     8.5573    -5.7036 C.3     
  26 N26            0.0590     8.7610     2.0552 N.3     
  27 C27           -0.8758     9.7842     1.5649 C.3     
  28 C28           -1.5132    10.4996     2.7590 C.3     
  29 O29           -2.1563     9.5360     3.5977 O.3     
  30 C30           -1.2749     8.5248     4.0935 C.3     
  31 C31           -0.6351     7.7895     2.9130 C.3     
  32 C32           -2.0660     7.5310     4.9464 C.3     
  33 C33           -2.5463    11.5104     2.2570 C.3     
  34 H34            1.4747     4.2438     0.1567 H       
  35 H35            4.9106     0.3716    -0.8770 H       
  36 H36            5.0853     1.3178     0.6205 H       
  37 H37            4.8832    -0.4488     0.7024 H       
  38 H38            1.0459    -2.5654     1.3511 H       
  39 H39           -0.4769    -3.0249     0.5522 H       
  40 H40            0.9597    -2.6389    -0.4253 H       
  41 H41            3.7816     5.7056     0.8764 H       
  42 H42            3.6960     5.6315    -0.9000 H       
  43 H43            2.3224     8.9240    -3.1378 H       
  44 H44            1.7967     4.7572    -2.2094 H       
  45 H45            1.5054     3.5414    -5.0542 H       
  46 H46            3.2382     3.7214    -5.4194 H       
  47 H47            2.7202     3.1872    -3.8024 H       
  48 H48            4.1361     8.7586    -5.6534 H       
  49 H49            2.8092     8.2043    -6.7024 H       
  50 H50            2.5137     9.4720    -5.4883 H       
  51 H51           -0.3361    10.5072     0.9532 H       
  52 H52           -1.6540     9.3097     0.9671 H       
  53 H53           -0.7411    11.0187     3.3268 H       
  54 H54           -0.4959     8.9866     4.7002 H       
  55 H55           -1.4094     7.2831     2.3367 H       
  56 H56            0.0804     7.0564     3.2854 H       
  57 H57           -2.8434     7.0685     4.3382 H       
  58 H58           -1.3937     6.7606     5.3240 H       
  59 H59           -2.5244     8.0558     5.7845 H       
  60 H60           -3.3188    10.9898     1.6910 H       
  61 H61           -2.9997    12.0193     3.1075 H       
  62 H62           -2.0562    12.2422     1.6147 H       
@<TRIPOS>BOND
   1    1    2 1
   2    1    5 1
   3    2    3 2
   4    2   10 1
   5    3    4 1
   6    4    5 2
   7    4    9 1
   8    5    6 1
   9    6    7 2
  10    6    8 am
  11    8   12 1
  12    8   34 1
  13    9   35 1
  14    9   36 1
  15    9   37 1
  16   10   11 1
  17   11   38 1
  18   11   39 1
  19   11   40 1
  20   12   16 1
  21   12   41 1
  22   12   42 1
  23   13   14 1
  24   13   17 1
  25   14   15 2
  26   14   26 1
  27   15   16 1
  28   16   17 2
  29   17   20 1
  30   18   19 ar
  31   18   23 ar
  32   18   25 1
  33   19   20 ar
  34   19   43 1
  35   20   21 ar
  36   21   22 ar
  37   21   44 1
  38   22   23 ar
  39   22   24 1
  40   24   45 1
  41   24   46 1
  42   24   47 1
  43   25   48 1
  44   25   49 1
  45   25   50 1
  46   26   27 1
  47   26   31 1
  48   27   28 1
  49   27   51 1
  50   27   52 1
  51   28   29 1
  52   28   33 1
  53   28   53 1
  54   29   30 1
  55   30   31 1
  56   30   32 1
  57   30   54 1
  58   31   55 1
  59   31   56 1
  60   32   57 1
  61   32   58 1
  62   32   59 1
  63   33   60 1
  64   33   61 1
  65   33   62 1

#	End of record

