#	Name: ASD01815887
#	Creating user name:	WinNT
#	Creation time:	15. 06. 2019 19:34

#	Modifying user name:	WinNT
#	Modification time:	15. 06. 2019 19:34

#	Program:	/corina/corina34_cracker 3.40 0067  02.08.2006

@<TRIPOS>MOLECULE
ASD01815887
  51   56    0    0    0
SMALL
NO_CHARGES


@<TRIPOS>ATOM
   1 C1            -0.0756     1.3135     0.1764 C.ar    
   2 C2            -0.0315    -0.0710     0.1644 C.ar    
   3 C3             1.1769    -0.7363     0.0955 C.ar    
   4 C4             2.3673    -0.0166     0.0372 C.ar    
   5 C5             2.3197     1.3868     0.0490 C.ar    
   6 C6             1.0945     2.0467     0.1187 C.ar    
   7 N7             3.5823    -0.6780    -0.0311 N.pl3   
   8 C8             4.7607    -0.0377    -0.0893 C.2     
   9 C9             4.8384     1.3330    -0.0848 C.2     
  10 C10            3.5924     2.1298    -0.0136 C.2     
  11 C11            5.9163     2.3158    -0.1361 C.2     
  12 N12            5.3224     3.5281    -0.0974 N.am    
  13 N13            3.9344     3.3863    -0.0243 N.2     
  14 C14            5.9961     4.7439    -0.1258 C.2     
  15 O15            7.1132     2.0880    -0.2005 O.2     
  16 C16            3.5813    -2.1430    -0.0397 C.3     
  17 C17            3.7083    -2.6537     1.3724 C.ar    
  18 C18            2.5836    -2.7673     2.1688 C.ar    
  19 C19            2.6968    -3.2346     3.4636 C.ar    
  20 C20            3.9414    -3.5909     3.9651 C.ar    
  21 C21            5.0688    -3.4762     3.1629 C.ar    
  22 C22            4.9485    -3.0131     1.8673 C.ar    
  23 N23            4.0596    -4.0652     5.2790 N.pl3   
  24 C24            5.2058    -4.4445     5.8881 C.2     
  25 F25            1.0505     3.3969     0.1295 F       
  26 F26            1.2038    -2.0870     0.0852 F       
  27 C27            4.8938    -4.8361     7.1452 C.2     
  28 C28            3.5120    -4.6919     7.3110 C.2     
  29 N29            3.0121    -4.2243     6.1955 N.2     
  30 N30            7.2966     4.8986    -0.1942 N.2     
  31 C31            6.4342     6.8981    -0.1372 C.2     
  32 C32            7.5876     6.2088    -0.2024 C.2     
  33 N33            5.4178     5.9749    -0.0933 N.pl3   
  34 C34            3.9829     6.2617    -0.0217 C.3     
  35 H35           -1.0273     1.8215     0.2264 H       
  36 H36           -0.9511    -0.6356     0.2098 H       
  37 H37            5.6714    -0.6159    -0.1406 H       
  38 H38            2.6487    -2.5032    -0.4739 H       
  39 H39            4.4215    -2.5033    -0.6333 H       
  40 H40            1.6157    -2.4900     1.7781 H       
  41 H41            1.8181    -3.3225     4.0853 H       
  42 H42            6.0383    -3.7523     3.5505 H       
  43 H43            5.8251    -2.9237     1.2428 H       
  44 H44            6.1928    -4.4369     5.4497 H       
  45 H45            5.5888    -5.1965     7.8893 H       
  46 H46            2.9545    -4.9223     8.2068 H       
  47 H47            6.3275     7.9728    -0.1252 H       
  48 H48            8.5782     6.6364    -0.2494 H       
  49 H49            3.6776     6.3295     1.0225 H       
  50 H50            3.7759     7.2073    -0.5228 H       
  51 H51            3.4277     5.4618    -0.5114 H       
@<TRIPOS>BOND
   1    1    2 ar
   2    1    6 ar
   3    1   35 1
   4    2    3 ar
   5    2   36 1
   6    3    4 ar
   7    3   26 1
   8    4    5 ar
   9    4    7 1
  10    5    6 ar
  11    5   10 1
  12    6   25 1
  13    7    8 1
  14    7   16 1
  15    8    9 2
  16    8   37 1
  17    9   10 1
  18    9   11 1
  19   10   13 2
  20   11   12 am
  21   11   15 2
  22   12   13 1
  23   12   14 1
  24   14   30 2
  25   14   33 1
  26   16   17 1
  27   16   38 1
  28   16   39 1
  29   17   18 ar
  30   17   22 ar
  31   18   19 ar
  32   18   40 1
  33   19   20 ar
  34   19   41 1
  35   20   21 ar
  36   20   23 1
  37   21   22 ar
  38   21   42 1
  39   22   43 1
  40   23   24 1
  41   23   29 1
  42   24   27 2
  43   24   44 1
  44   27   28 1
  45   27   45 1
  46   28   29 2
  47   28   46 1
  48   30   32 1
  49   31   32 2
  50   31   33 1
  51   31   47 1
  52   32   48 1
  53   33   34 1
  54   34   49 1
  55   34   50 1
  56   34   51 1

#	End of record

