#	Name: ASD03240014
#	Creating user name:	WinNT
#	Creation time:	15. 06. 2019 20:34

#	Modifying user name:	WinNT
#	Modification time:	15. 06. 2019 20:34

#	Program:	/corina/corina34_cracker 3.40 0067  02.08.2006

@<TRIPOS>MOLECULE
ASD03240014
  75   80    0    0    0
SMALL
NO_CHARGES


@<TRIPOS>ATOM
   1 C1            -0.0095     1.3721     0.2512 C.2     
   2 C2             0.0638     0.3601    -0.7312 C.2     
   3 N3             1.0503     1.6979     0.9486 N.2     
   4 C4             2.2188     1.0838     0.7477 C.2     
   5 C5             2.3317     0.0814    -0.2120 C.2     
   6 N6             1.2358    -0.2729    -0.9497 N.am    
   7 C7             3.6244    -0.5944    -0.4313 C.ar    
   8 C8             3.4022     1.4716     1.5503 C.ar    
   9 C9             3.7530     2.8155     1.6760 C.ar    
  10 C10            4.8563     3.1705     2.4248 C.ar    
  11 C11            5.6141     2.1964     3.0498 C.ar    
  12 C12            5.2714     0.8616     2.9285 C.ar    
  13 C13            4.1664     0.4947     2.1878 C.ar    
  14 C14            3.6914    -1.9899    -0.4584 C.ar    
  15 C15            4.9035    -2.6148    -0.6644 C.ar    
  16 C16            6.0515    -1.8632    -0.8440 C.ar    
  17 C17            5.9929    -0.4808    -0.8183 C.ar    
  18 C18            4.7870     0.1580    -0.6186 C.ar    
  19 C19            7.3722    -2.5536    -1.0680 C.3     
  20 N20            7.5776    -2.7625    -2.5075 N.3     
  21 C21            8.9474    -3.2139    -2.7837 C.3     
  22 C22            9.1686    -3.2808    -4.2965 C.3     
  23 C23            8.1574    -4.2515    -4.9128 C.3     
  24 C24            6.7398    -3.7853    -4.5697 C.3     
  25 C25            6.5890    -3.7038    -3.0490 C.3     
  26 N26            8.3261    -4.2756    -6.3679 N.am    
  27 C27            8.6477    -5.3943    -7.1328 C.ar    
  28 C28            8.7080    -4.9707    -8.4619 C.ar    
  29 N29            8.4211    -3.6077    -8.4634 N.am    
  30 C30            8.1909    -3.2213    -7.1943 C.2     
  31 C31            8.8920    -6.7229    -6.8198 C.ar    
  32 C32            9.1938    -7.6215    -7.8241 C.ar    
  33 C33            9.2535    -7.2015    -9.1419 C.ar    
  34 C34            9.0118    -5.8803    -9.4634 C.ar    
  35 O35            7.9117    -2.0892    -6.8462 O.2     
  36 O36           -0.9257     0.0598    -1.3779 O.2     
  37 C37           -1.3142     2.0861     0.4945 C.3     
  38 C38           -1.1273     3.1274     1.5997 C.3     
  39 C39           -2.4156     3.9369     1.7609 C.3     
  40 C40           -0.8011     2.4204     2.9168 C.3     
  41 H41            1.3001    -0.9693    -1.6219 H       
  42 H42            3.1625     3.5768     1.1879 H       
  43 H43            5.1289     4.2109     2.5228 H       
  44 H44            6.4769     2.4791     3.6346 H       
  45 H45            5.8672     0.1056     3.4182 H       
  46 H46            3.8996    -0.5476     2.0941 H       
  47 H47            2.7963    -2.5777    -0.3181 H       
  48 H48            4.9569    -3.6932    -0.6853 H       
  49 H49            6.8929     0.0993    -0.9592 H       
  50 H50            4.7426     1.2369    -0.5992 H       
  51 H51            8.1775    -1.9347    -0.6722 H       
  52 H52            7.3699    -3.5168    -0.5578 H       
  53 H53            9.6565    -2.5127    -2.3436 H       
  54 H54            9.0982    -4.2027    -2.3505 H       
  55 H55            9.0315    -2.2895    -4.7285 H       
  56 H56           10.1804    -3.6308    -4.5012 H       
  57 H57            8.3197    -5.2511    -4.5098 H       
  58 H58            6.5645    -2.8020    -5.0060 H       
  59 H59            6.0164    -4.4958    -4.9696 H       
  60 H60            6.7509    -4.6903    -2.6145 H       
  61 H61            5.5852    -3.3584    -2.8016 H       
  62 H62            8.3887    -3.0353    -9.2458 H       
  63 H63            8.8466    -7.0541    -5.7928 H       
  64 H64            9.3843    -8.6562    -7.5804 H       
  65 H65            9.4901    -7.9100    -9.9219 H       
  66 H66            9.0589    -5.5564   -10.4926 H       
  67 H67           -1.6332     2.5823    -0.4220 H       
  68 H68           -2.0719     1.3644     0.7997 H       
  69 H69           -0.3088     3.7964     1.3340 H       
  70 H70           -3.2341     3.2679     2.0266 H       
  71 H71           -2.2825     4.6788     2.5483 H       
  72 H72           -2.6480     4.4406     0.8226 H       
  73 H73           -0.6679     3.1623     3.7041 H       
  74 H74           -1.6196     1.7515     3.1825 H       
  75 H75            0.1167     1.8438     2.8020 H       
@<TRIPOS>BOND
   1    1    2 1
   2    1    3 2
   3    1   37 1
   4    2   36 2
   5    2    6 am
   6    3    4 1
   7    4    5 2
   8    4    8 1
   9    5    6 1
  10    5    7 1
  11    6   41 1
  12    7   14 ar
  13    7   18 ar
  14    8    9 ar
  15    8   13 ar
  16    9   10 ar
  17    9   42 1
  18   10   11 ar
  19   10   43 1
  20   11   12 ar
  21   11   44 1
  22   12   13 ar
  23   12   45 1
  24   13   46 1
  25   14   15 ar
  26   14   47 1
  27   15   16 ar
  28   15   48 1
  29   16   17 ar
  30   16   19 1
  31   17   18 ar
  32   17   49 1
  33   18   50 1
  34   19   20 1
  35   19   51 1
  36   19   52 1
  37   20   21 1
  38   20   25 1
  39   21   22 1
  40   21   53 1
  41   21   54 1
  42   22   23 1
  43   22   55 1
  44   22   56 1
  45   23   24 1
  46   23   26 1
  47   23   57 1
  48   24   25 1
  49   24   58 1
  50   24   59 1
  51   25   60 1
  52   25   61 1
  53   26   27 1
  54   26   30 am
  55   27   28 ar
  56   27   31 ar
  57   28   29 1
  58   28   34 ar
  59   29   30 am
  60   29   62 1
  61   30   35 2
  62   31   32 ar
  63   31   63 1
  64   32   33 ar
  65   32   64 1
  66   33   34 ar
  67   33   65 1
  68   34   66 1
  69   37   38 1
  70   37   67 1
  71   37   68 1
  72   38   39 1
  73   38   40 1
  74   38   69 1
  75   39   70 1
  76   39   71 1
  77   39   72 1
  78   40   73 1
  79   40   74 1
  80   40   75 1

#	End of record

