#	Name: ASD01911222
#	Creating user name:	WinNT
#	Creation time:	15. 06. 2019 19:57

#	Modifying user name:	WinNT
#	Modification time:	15. 06. 2019 19:57

#	Program:	/corina/corina34_cracker 3.40 0067  02.08.2006

@<TRIPOS>MOLECULE
ASD01911222
  41   44    0    0    0
SMALL
NO_CHARGES


@<TRIPOS>ATOM
   1 C1            -0.0187     1.5277     0.0104 C.3     
   2 C2             0.0021    -0.0041     0.0020 C.3     
   3 N3             0.8027    -0.4599    -1.1425 N.am    
   4 C4             2.1696     0.0559    -1.2987 C.3     
   5 C5             2.1245     1.5870    -1.2757 C.3     
   6 C6             1.4185     2.0534    -0.0005 C.3     
   7 C7             0.2931    -1.3348    -2.0321 C.2     
   8 O8             0.9641    -1.7034    -2.9727 O.2     
   9 C9            -1.1105    -1.8550    -1.8579 C.3     
  10 C10           -1.5418    -2.8430    -2.9546 C.3     
  11 C11           -2.2258    -3.6564    -1.8431 C.3     
  12 C12           -1.2143    -3.0287    -0.8696 C.3     
  13 C13            3.5293     2.1319    -1.3010 C.2     
  14 N14            4.0417     2.9172    -2.2148 N.2     
  15 C15            5.3179     3.1452    -1.8242 C.2     
  16 N16            5.5013     2.4891    -0.7048 N.2     
  17 O17            4.4833     1.9087    -0.3916 O.3     
  18 C18            6.3157     3.9771    -2.5275 C.2     
  19 C19            7.5826     4.1881    -2.1162 C.2     
  20 C20            8.3281     5.0028    -2.9407 C.2     
  21 C21            7.6837     5.4588    -4.0201 C.2     
  22 S22            6.0378     4.8395    -4.0351 S.3     
  23 H23           -0.5451     1.8893    -0.8729 H       
  24 H24           -0.5281     1.8797     0.9075 H       
  25 H25            0.4474    -0.3686     0.9277 H       
  26 H26           -1.0158    -0.3828    -0.0901 H       
  27 H27            2.7916    -0.3037    -0.4790 H       
  28 H28            2.5818    -0.2833    -2.2490 H       
  29 H29            1.5780     1.9480    -2.1469 H       
  30 H30            1.4069     3.1429     0.0304 H       
  31 H31            1.9516     1.6714     0.8702 H       
  32 H32           -1.8360    -1.0625    -1.6744 H       
  33 H33           -2.2390    -2.4173    -3.6762 H       
  34 H34           -0.7080    -3.3632    -3.4262 H       
  35 H35           -3.2568    -3.3571    -1.6545 H       
  36 H36           -2.1109    -4.7343    -1.9571 H       
  37 H37           -0.2909    -3.5995    -0.7712 H       
  38 H38           -1.6471    -2.7528     0.0920 H       
  39 H39            7.9814     3.7533    -1.2117 H       
  40 H40            9.3570     5.2548    -2.7304 H       
  41 H41            8.1109     6.1062    -4.7716 H       
@<TRIPOS>BOND
   1    1    2 1
   2    1    6 1
   3    1   23 1
   4    1   24 1
   5    2    3 1
   6    2   25 1
   7    2   26 1
   8    3    4 1
   9    3    7 am
  10    4    5 1
  11    4   27 1
  12    4   28 1
  13    5    6 1
  14    5   13 1
  15    5   29 1
  16    6   30 1
  17    6   31 1
  18    7    8 2
  19    7    9 1
  20    9   10 1
  21    9   12 1
  22    9   32 1
  23   10   11 1
  24   10   33 1
  25   10   34 1
  26   11   12 1
  27   11   35 1
  28   11   36 1
  29   12   37 1
  30   12   38 1
  31   13   14 2
  32   13   17 1
  33   14   15 1
  34   15   16 2
  35   15   18 1
  36   16   17 1
  37   18   19 2
  38   18   22 1
  39   19   20 1
  40   19   39 1
  41   20   21 2
  42   20   40 1
  43   21   22 1
  44   21   41 1

#	End of record

