#	Name: ASD01881081
#	Creating user name:	WinNT
#	Creation time:	15. 06. 2019 19:42

#	Modifying user name:	WinNT
#	Modification time:	15. 06. 2019 19:42

#	Program:	/corina/corina34_cracker 3.40 0067  02.08.2006

@<TRIPOS>MOLECULE
ASD01881081
  53   56    0    0    0
SMALL
NO_CHARGES


@<TRIPOS>ATOM
   1 C1            -0.0169     1.3950     0.0097 C.ar    
   2 C2             0.0021    -0.0041     0.0020 C.ar    
   3 C3             1.2091    -0.6926    -0.0132 C.ar    
   4 C4             2.4034     0.0238    -0.0207 C.ar    
   5 C5             2.3732     1.4390    -0.0128 C.ar    
   6 C6             1.1476     2.1093     0.0024 C.ar    
   7 C7             3.7067    -0.6442    -0.0361 C.2     
   8 C8             4.8268     0.0959    -0.0424 C.2     
   9 N9             4.8013     1.4614    -0.0349 N.am    
  10 C10            3.6492     2.1602    -0.0207 C.2     
  11 C11            6.0710     2.1921    -0.0427 C.3     
  12 C12            6.4998     2.4542    -1.4878 C.3     
  13 C13            7.8259     3.2173    -1.4959 C.3     
  14 O14            3.6680     3.3781    -0.0147 O.2     
  15 Cl15           1.1045     3.8448     0.0122 Cl      
  16 C16           -1.2751    -0.7576     0.0106 C.ar    
  17 C17           -2.4990    -0.0796     0.0264 C.ar    
  18 C18           -3.6624    -0.8247     0.0334 C.ar    
  19 C19           -3.5801    -2.2122     0.0247 C.ar    
  20 N20           -2.4064    -2.8233     0.0098 N.ar    
  21 C21           -1.2737    -2.1502    -0.0027 C.ar    
  22 O22           -4.7182    -2.9499     0.0319 O.3     
  23 C23           -4.5702    -4.3712     0.0224 C.3     
  24 C24           -5.9521    -5.0279     0.0326 C.3     
  25 C25           -5.7960    -6.5268     0.0225 C.ar    
  26 C26           -5.7124    -7.2210     1.2149 C.ar    
  27 C27           -5.5692    -8.5959     1.2056 C.ar    
  28 C28           -5.5101    -9.2766     0.0039 C.ar    
  29 C29           -5.5946    -8.5824    -1.1885 C.ar    
  30 C30           -5.7422    -7.2080    -1.1792 C.ar    
  31 H31           -0.9629     1.9160     0.0170 H       
  32 H32            1.2209    -1.7726    -0.0187 H       
  33 H33            3.7662    -1.7225    -0.0421 H       
  34 H34            5.7827    -0.4067    -0.0535 H       
  35 H35            5.9468     3.1420     0.4774 H       
  36 H36            6.8345     1.5992     0.4610 H       
  37 H37            6.6241     1.5043    -2.0078 H       
  38 H38            5.7364     3.0471    -1.9915 H       
  39 H39            8.5894     2.6244    -0.9922 H       
  40 H40            8.1314     3.4040    -2.5254 H       
  41 H41            7.7017     4.1671    -0.9758 H       
  42 H42           -2.5335     0.9999     0.0332 H       
  43 H43           -4.6248    -0.3348     0.0459 H       
  44 H44           -0.3348    -2.6838    -0.0147 H       
  45 H45           -4.0306    -4.6742    -0.8748 H       
  46 H46           -4.0126    -4.6844     0.9050 H       
  47 H47           -6.4918    -4.7248     0.9298 H       
  48 H48           -6.5097    -4.7147    -0.8501 H       
  49 H49           -5.7585    -6.6892     2.1538 H       
  50 H50           -5.5031    -9.1382     2.1372 H       
  51 H51           -5.3975   -10.3507    -0.0033 H       
  52 H52           -5.5481    -9.1142    -2.1274 H       
  53 H53           -5.8083    -6.6656    -2.1108 H       
@<TRIPOS>BOND
   1    1    2 ar
   2    1    6 ar
   3    1   31 1
   4    2    3 ar
   5    2   16 1
   6    3    4 ar
   7    3   32 1
   8    4    5 ar
   9    4    7 1
  10    5    6 ar
  11    5   10 1
  12    6   15 1
  13    7    8 2
  14    7   33 1
  15    8    9 1
  16    8   34 1
  17    9   10 am
  18    9   11 1
  19   10   14 2
  20   11   12 1
  21   11   35 1
  22   11   36 1
  23   12   13 1
  24   12   37 1
  25   12   38 1
  26   13   39 1
  27   13   40 1
  28   13   41 1
  29   16   17 ar
  30   16   21 ar
  31   17   18 ar
  32   17   42 1
  33   18   19 ar
  34   18   43 1
  35   19   20 ar
  36   19   22 1
  37   20   21 ar
  38   21   44 1
  39   22   23 1
  40   23   24 1
  41   23   45 1
  42   23   46 1
  43   24   25 1
  44   24   47 1
  45   24   48 1
  46   25   26 ar
  47   25   30 ar
  48   26   27 ar
  49   26   49 1
  50   27   28 ar
  51   27   50 1
  52   28   29 ar
  53   28   51 1
  54   29   30 ar
  55   29   52 1
  56   30   53 1

#	End of record

