#	Name: ASD01914660
#	Creating user name:	WinNT
#	Creation time:	15. 06. 2019 20:04

#	Modifying user name:	WinNT
#	Modification time:	15. 06. 2019 20:04

#	Program:	/corina/corina34_cracker 3.40 0067  02.08.2006

@<TRIPOS>MOLECULE
ASD01914660
  42   44    0    0    0
SMALL
NO_CHARGES


@<TRIPOS>ATOM
   1 N1            -0.0158     1.3157     0.0093 N.ar    
   2 C2             7.1865    -1.2915    -0.0730 C.2     
   3 N3             8.1073    -2.3015    -0.0866 N.pl3   
   4 C4             5.9569    -1.8823    -0.0641 C.2     
   5 N5             6.1459    -3.2258    -0.0723 N.2     
   6 C6             7.4241    -3.4772    -0.0856 C.2     
   7 C7             4.6945    -1.2064    -0.0489 C.1     
   8 C8             3.6596    -0.6523    -0.0364 C.1     
   9 C9             2.3972     0.0236    -0.0212 C.ar    
  10 C10            1.1940    -0.6962    -0.0131 C.ar    
  11 C11            0.0021    -0.0041     0.0020 C.ar    
  12 C12            1.0927     2.0325     0.0025 C.ar    
  13 C13            2.3292     1.4244    -0.0130 C.ar    
  14 C14            9.5012    -2.1525    -0.0996 C.ar    
  15 C15            8.0455    -4.8501    -0.0988 C.3     
  16 C16            1.0047     3.5369     0.0115 C.3     
  17 C17           10.1017    -1.3061    -1.0218 C.ar    
  18 C18           11.4752    -1.1614    -1.0322 C.ar    
  19 C19           12.2522    -1.8589    -0.1256 C.ar    
  20 C20           11.6570    -2.7026     0.7941 C.ar    
  21 C21           10.2834    -2.8467     0.8134 C.ar    
  22 S22           14.0042    -1.6726    -0.1428 S.o2    
  23 O23           14.4915    -2.8899     0.4049 O.2     
  24 O24           14.3039    -1.2994    -1.4807 O.2     
  25 C25           14.3237    -0.2922     0.9899 C.3     
  26 H26            7.3925    -0.2314    -0.0660 H       
  27 H27            1.2009    -1.7762    -0.0190 H       
  28 H28           -0.9302    -0.5492     0.0084 H       
  29 H29            3.2319     2.0174    -0.0184 H       
  30 H30            8.1853    -5.1758    -1.1296 H       
  31 H31            9.0111    -4.8167     0.4057 H       
  32 H32            7.3896    -5.5508     0.4179 H       
  33 H33            0.9733     3.9051    -1.0140 H       
  34 H34            0.1002     3.8448     0.5360 H       
  35 H35            1.8770     3.9489     0.5189 H       
  36 H36            9.4954    -0.7617    -1.7306 H       
  37 H37           11.9429    -0.5032    -1.7494 H       
  38 H38           12.2664    -3.2463     1.5008 H       
  39 H39            9.8191    -3.5058     1.5320 H       
  40 H40           13.9509    -0.5432     1.9829 H       
  41 H41           15.3963    -0.1050     1.0411 H       
  42 H42           13.8159     0.6012     0.6263 H       
@<TRIPOS>BOND
   1    1   11 ar
   2    1   12 ar
   3    2    3 1
   4    2    4 2
   5    2   26 1
   6    3   14 1
   7    3    6 1
   8    4    5 1
   9    4    7 1
  10    5    6 2
  11    6   15 1
  12    7    8 3
  13    8    9 1
  14    9   10 ar
  15    9   13 ar
  16   10   11 ar
  17   10   27 1
  18   11   28 1
  19   12   13 ar
  20   12   16 1
  21   13   29 1
  22   14   17 ar
  23   14   21 ar
  24   15   30 1
  25   15   31 1
  26   15   32 1
  27   16   33 1
  28   16   34 1
  29   16   35 1
  30   17   18 ar
  31   17   36 1
  32   18   19 ar
  33   18   37 1
  34   19   20 ar
  35   19   22 1
  36   20   21 ar
  37   20   38 1
  38   21   39 1
  39   22   23 2
  40   22   24 2
  41   22   25 1
  42   25   40 1
  43   25   41 1
  44   25   42 1

#	End of record

