#	Name: ASD03330602
#	Creating user name:	WinNT
#	Creation time:	15. 06. 2019 20:37

#	Modifying user name:	WinNT
#	Modification time:	15. 06. 2019 20:37

#	Program:	/corina/corina34_cracker 3.40 0067  02.08.2006

@<TRIPOS>MOLECULE
ASD03330602
  67   69    0    0    0
SMALL
NO_CHARGES


@<TRIPOS>ATOM
   1 C1             0.1581     1.8769    -1.1270 C.2     
   2 N2             0.1377     0.5703    -1.5009 N.pl3   
   3 C3             1.4106     2.1405    -0.6611 C.2     
   4 N4             2.1380     1.0076    -0.7712 N.2     
   5 C5             1.3840     0.0616    -1.2796 C.2     
   6 C6             1.8137    -1.3252    -1.5651 C.ar    
   7 C7             1.8870     3.4308    -0.1322 C.2     
   8 O8             1.1331     4.3839    -0.0839 O.2     
   9 C9             3.6318     4.8373     0.8241 C.3     
  10 N10            3.1582     3.5546     0.2982 N.am    
  11 C11            3.2741     4.9436     2.3078 C.3     
  12 C12            3.8547     3.7442     3.0596 C.3     
  13 C13            3.8575     6.2363     2.8818 C.3     
  14 C14            1.7523     4.9566     2.4659 C.3     
  15 C15            5.1272     4.9260     0.6603 C.2     
  16 N16            5.7370     6.1278     0.6784 N.am    
  17 O17            5.7820     3.9160     0.5122 O.2     
  18 C18            7.1741     6.2242     0.4106 C.3     
  19 C19           -1.0275    -0.1444    -2.0293 C.3     
  20 C20           -1.6894     0.7084    -3.1161 C.3     
  21 C21           -2.7014     1.6573    -2.4820 C.3     
  22 N22           -2.2575     2.0917    -1.1561 N.3     
  23 C23           -0.9947     2.8411    -1.2343 C.3     
  24 C24           -3.2981     2.8823    -0.4853 C.3     
  25 C25            3.5336    -2.8976    -2.1766 C.ar    
  26 C26            2.6029    -3.9357    -2.0977 C.ar    
  27 C27            1.2910    -3.6664    -1.7614 C.ar    
  28 C28            0.8919    -2.3716    -1.4954 C.ar    
  29 C29            3.1369    -1.5887    -1.9093 C.ar    
  30 C30            4.9380    -3.1873    -2.5373 C.2     
  31 O31            5.7470    -2.2827    -2.6055 O.2     
  32 N32            5.3211    -4.4544    -2.7904 N.am    
  33 C33            6.7126    -4.7414    -3.1478 C.3     
  34 H34            3.1574     5.6519     0.2767 H       
  35 H35            3.7595     2.7944     0.2597 H       
  36 H36            4.9388     3.7349     2.9470 H       
  37 H37            3.5998     3.8199     4.1167 H       
  38 H38            3.4391     2.8232     2.6507 H       
  39 H39            3.4638     7.0894     2.3292 H       
  40 H40            3.5806     6.3248     3.9323 H       
  41 H41            4.9436     6.2157     2.7928 H       
  42 H42            1.3367     4.0356     2.0570 H       
  43 H43            1.4974     5.0322     3.5230 H       
  44 H44            1.3387     5.8110     1.9303 H       
  45 H45            5.2244     6.9290     0.8687 H       
  46 H46            7.7215     5.6400     1.1504 H       
  47 H47            7.3847     5.8370    -0.5863 H       
  48 H48            7.4854     7.2672     0.4686 H       
  49 H49           -0.7088    -1.0954    -2.4560 H       
  50 H50           -1.7396    -0.3256    -1.2242 H       
  51 H51           -0.9269     1.2873    -3.6373 H       
  52 H52           -2.1986     0.0580    -3.8272 H       
  53 H53           -2.8227     2.5309    -3.1226 H       
  54 H54           -3.6603     1.1474    -2.3889 H       
  55 H55           -0.9461     3.5597    -0.4161 H       
  56 H56           -0.9418     3.3678    -2.1871 H       
  57 H57           -4.1976     2.2772    -0.3719 H       
  58 H58           -2.9423     3.1921     0.4973 H       
  59 H59           -3.5267     3.7643    -1.0837 H       
  60 H60            2.9097    -4.9511    -2.3005 H       
  61 H61            0.5748    -4.4726    -1.7021 H       
  62 H62           -0.1357    -2.1679    -1.2325 H       
  63 H63            3.8526    -0.7821    -1.9691 H       
  64 H64            4.6756    -5.1764    -2.7360 H       
  65 H65            6.9729    -4.2009    -4.0578 H       
  66 H66            7.3686    -4.4250    -2.3369 H       
  67 H67            6.8314    -5.8120    -3.3146 H       
@<TRIPOS>BOND
   1    1    2 1
   2    1    3 2
   3    1   23 1
   4    2   19 1
   5    2    5 1
   6    3    4 1
   7    3    7 1
   8    4    5 2
   9    5    6 1
  10    6   29 ar
  11    6   28 ar
  12    7    8 2
  13    7   10 am
  14    9   10 1
  15    9   11 1
  16    9   15 1
  17    9   34 1
  18   10   35 1
  19   11   12 1
  20   11   13 1
  21   11   14 1
  22   12   36 1
  23   12   37 1
  24   12   38 1
  25   13   39 1
  26   13   40 1
  27   13   41 1
  28   14   42 1
  29   14   43 1
  30   14   44 1
  31   15   16 am
  32   15   17 2
  33   16   18 1
  34   16   45 1
  35   18   46 1
  36   18   47 1
  37   18   48 1
  38   19   20 1
  39   19   49 1
  40   19   50 1
  41   20   21 1
  42   20   51 1
  43   20   52 1
  44   21   22 1
  45   21   53 1
  46   21   54 1
  47   22   23 1
  48   22   24 1
  49   23   55 1
  50   23   56 1
  51   24   57 1
  52   24   58 1
  53   24   59 1
  54   25   26 ar
  55   25   30 1
  56   25   29 ar
  57   26   27 ar
  58   26   60 1
  59   27   28 ar
  60   27   61 1
  61   28   62 1
  62   29   63 1
  63   30   31 2
  64   30   32 am
  65   32   33 1
  66   32   64 1
  67   33   65 1
  68   33   66 1
  69   33   67 1

#	End of record

