#	Name: ASD03320150
#	Creating user name:	WinNT
#	Creation time:	15. 06. 2019 20:36

#	Modifying user name:	WinNT
#	Modification time:	15. 06. 2019 20:36

#	Program:	/corina/corina34_cracker 3.40 0067  02.08.2006

@<TRIPOS>MOLECULE
ASD03320150
  42   44    0    0    0
SMALL
NO_CHARGES


@<TRIPOS>ATOM
   1 C1             0.0219     1.1764     0.1326 C.ar    
   2 C2            -0.0740    -0.1797    -0.1860 C.ar    
   3 C3            -1.3127    -0.7807    -0.2891 C.ar    
   4 C4            -2.4629    -0.0457    -0.0786 C.ar    
   5 C5            -2.3804     1.3094     0.2403 C.ar    
   6 C6            -1.1364     1.9208     0.3516 C.ar    
   7 C7             1.3483     1.8196     0.2435 C.2     
   8 O8             1.4300     3.0004     0.5210 O.2     
   9 N9             2.4670     1.0970     0.0369 N.am    
  10 C10            3.7185     1.7253     0.0479 C.ar    
  11 C11           -3.6182     2.0967     0.4655 C.ar    
  12 C12            3.9581     2.7809     0.9178 C.ar    
  13 C13            5.1924     3.4000     0.9281 C.ar    
  14 C14            6.1926     2.9681     0.0694 C.ar    
  15 C15            5.9538     1.9139    -0.8003 C.ar    
  16 C16            4.7222     1.2895    -0.8070 C.ar    
  17 O17            7.4075     3.5785     0.0798 O.3     
  18 C18            8.3907     3.0823    -0.8308 C.3     
  19 F19            7.9180     3.2080    -2.1415 F       
  20 C20           -4.5573     1.6866     1.4152 C.ar    
  21 C21           -5.6955     2.4558     1.5879 C.ar    
  22 C22           -5.8648     3.5946     0.8222 C.ar    
  23 N23           -4.9604     3.9565    -0.0674 N.ar    
  24 C24           -3.8597     3.2598    -0.2626 C.ar    
  25 F25            9.5719     3.8183    -0.6884 F       
  26 F26            8.6447     1.7346    -0.5540 F       
  27 C27           -3.8108    -0.7098    -0.1942 C.3     
  28 H28            0.8220    -0.7592    -0.3524 H       
  29 H29           -1.3824    -1.8298    -0.5358 H       
  30 H30           -1.0680     2.9700     0.5987 H       
  31 H31            2.4054     0.1417    -0.1195 H       
  32 H32            3.1793     3.1177     1.5859 H       
  33 H33            5.3789     4.2209     1.6046 H       
  34 H34            6.7327     1.5787    -1.4690 H       
  35 H35            4.5364     0.4689    -1.4841 H       
  36 H36           -4.3996     0.7921     1.9995 H       
  37 H37           -6.4432     2.1693     2.3127 H       
  38 H38           -6.7514     4.1970     0.9543 H       
  39 H39           -3.1425     3.5879    -1.0003 H       
  40 H40           -4.1482    -1.0216     0.7943 H       
  41 H41           -4.5275    -0.0060    -0.6175 H       
  42 H42           -3.7316    -1.5821    -0.8430 H       
@<TRIPOS>BOND
   1    1    2 ar
   2    1    7 1
   3    1    6 ar
   4    2    3 ar
   5    2   28 1
   6    3    4 ar
   7    3   29 1
   8    4    5 ar
   9    4   27 1
  10    5    6 ar
  11    5   11 1
  12    6   30 1
  13    7    8 2
  14    7    9 am
  15    9   10 1
  16    9   31 1
  17   10   12 ar
  18   10   16 ar
  19   11   20 ar
  20   11   24 ar
  21   12   13 ar
  22   12   32 1
  23   13   14 ar
  24   13   33 1
  25   14   15 ar
  26   14   17 1
  27   15   16 ar
  28   15   34 1
  29   16   35 1
  30   17   18 1
  31   18   19 1
  32   18   25 1
  33   18   26 1
  34   20   21 ar
  35   20   36 1
  36   21   22 ar
  37   21   37 1
  38   22   23 ar
  39   22   38 1
  40   23   24 ar
  41   24   39 1
  42   27   40 1
  43   27   41 1
  44   27   42 1

#	End of record

