#	Name: ASD08830258
#	Creating user name:	WinNT
#	Creation time:	15. 06. 2019 21:20

#	Modifying user name:	WinNT
#	Modification time:	15. 06. 2019 21:20

#	Program:	/corina/corina34_cracker 3.40 0067  02.08.2006

@<TRIPOS>MOLECULE
ASD08830258
  28   29    0    0    0
SMALL
NO_CHARGES


@<TRIPOS>ATOM
   1 C1            -0.3366     1.2660     0.0747 C.ar    
   2 C2            -0.2434    -0.0825     0.3541 C.ar    
   3 C3             1.0045    -0.7038     0.3855 C.ar    
   4 C4             2.1548     0.0397     0.1339 C.ar    
   5 C5             2.0524     1.3942    -0.1466 C.ar    
   6 C6             0.8046     2.0048    -0.1752 C.ar    
   7 C7             1.1066    -2.1524     0.6865 C.ar    
   8 C8             0.2317    -3.0656     0.0900 C.ar    
   9 C9             0.3689    -4.4068     0.4038 C.ar    
  10 N10            1.3160    -4.7783     1.2515 N.ar    
  11 C11            2.1262    -3.8918     1.7979 C.ar    
  12 N12            2.0362    -2.6055     1.5249 N.ar    
  13 Cl13           3.3495    -4.4358     2.9030 Cl      
  14 N14            3.2047     2.1451    -0.3999 N.am    
  15 C15            4.2383     1.5902    -1.0633 C.2     
  16 C16            5.4075     2.4081    -1.4196 C.2     
  17 C17            6.4276     1.8604    -2.0743 C.2     
  18 O18            4.2042     0.4130    -1.3673 O.2     
  19 Br19          -1.1050    -2.4833    -1.1142 Br      
  20 H20           -1.3045     1.7444     0.0468 H       
  21 H21           -1.1373    -0.6565     0.5488 H       
  22 H22            3.1237    -0.4369     0.1574 H       
  23 H23            0.7261     3.0596    -0.3937 H       
  24 H24           -0.2888    -5.1413    -0.0371 H       
  25 H25            3.2599     3.0653    -0.0982 H       
  26 H26            5.4378     3.4533    -1.1496 H       
  27 H27            7.2863     2.4610    -2.3360 H       
  28 H28            6.3973     0.8151    -2.3443 H       
@<TRIPOS>BOND
   1    1    2 ar
   2    1    6 ar
   3    1   20 1
   4    2    3 ar
   5    2   21 1
   6    3    4 ar
   7    3    7 1
   8    4    5 ar
   9    4   22 1
  10    5    6 ar
  11    5   14 1
  12    6   23 1
  13    7    8 ar
  14    7   12 ar
  15    8    9 ar
  16    8   19 1
  17    9   10 ar
  18    9   24 1
  19   10   11 ar
  20   11   12 ar
  21   11   13 1
  22   14   15 am
  23   14   25 1
  24   15   16 1
  25   15   18 2
  26   16   17 2
  27   16   26 1
  28   17   27 1
  29   17   28 1

#	End of record

