#	Name: ASD01810222
#	Creating user name:	WinNT
#	Creation time:	15. 06. 2019 19:24

#	Modifying user name:	WinNT
#	Modification time:	15. 06. 2019 19:24

#	Program:	/corina/corina34_cracker 3.40 0067  02.08.2006

@<TRIPOS>MOLECULE
ASD01810222
  43   46    0    0    0
SMALL
NO_CHARGES


@<TRIPOS>ATOM
   1 C1             0.0983     1.4761     0.3582 C.ar    
   2 C2             0.0802     0.0884     0.3504 C.ar    
   3 C3             1.2499    -0.6303     0.2196 C.ar    
   4 C4             2.4674     0.0388     0.0929 C.ar    
   5 C5             2.4809     1.4431     0.1008 C.ar    
   6 C6             1.2891     2.1563     0.2345 C.ar    
   7 N7             3.6442    -0.6674    -0.0382 N.pl3   
   8 C8             4.8372    -0.0727    -0.1623 C.2     
   9 C9             4.9773     1.3007    -0.1677 C.2     
  10 C10            3.7746     2.1384    -0.0340 C.2     
  11 O11            3.8448     3.3549    -0.0334 O.2     
  12 C12            6.3050     1.9159    -0.3048 C.2     
  13 O13            6.4287     3.2583    -0.3087 O.3     
  14 O14            7.2916     1.2143    -0.4146 O.2     
  15 C15            3.5869    -2.1313    -0.0413 C.3     
  16 C16            3.4437    -2.6254    -1.4578 C.ar    
  17 C17            4.5585    -2.7705    -2.2623 C.ar    
  18 N18            4.4464    -3.2011    -3.5025 N.ar    
  19 C19            3.2682    -3.5115    -4.0270 C.ar    
  20 C20            2.1030    -3.3895    -3.2727 C.ar    
  21 C21            2.1919    -2.9445    -1.9652 C.ar    
  22 C22            3.1904    -3.9920    -5.4284 C.ar    
  23 C23            4.3505    -4.1166    -6.1904 C.ar    
  24 C24            4.2722    -4.5646    -7.4934 C.ar    
  25 C25            3.0452    -4.8891    -8.0434 C.ar    
  26 C26            1.8905    -4.7673    -7.2917 C.ar    
  27 C27            1.9575    -4.3258    -5.9858 C.ar    
  28 F28            1.2168    -1.9809     0.2145 F       
  29 H29           -0.8264     2.0251     0.4574 H       
  30 H30           -0.8599    -0.4342     0.4482 H       
  31 H31            1.3005     3.2362     0.2402 H       
  32 H32            5.7194    -0.6878    -0.2611 H       
  33 H33            7.3221     3.6166    -0.4013 H       
  34 H34            4.5032    -2.5317     0.3923 H       
  35 H35            2.7314    -2.4626     0.5473 H       
  36 H36            5.5345    -2.5272    -1.8691 H       
  37 H37            1.1444    -3.6422    -3.7011 H       
  38 H38            1.3063    -2.8403    -1.3560 H       
  39 H39            5.3089    -3.8628    -5.7622 H       
  40 H40            5.1706    -4.6616    -8.0849 H       
  41 H41            2.9885    -5.2386    -9.0638 H       
  42 H42            0.9351    -5.0221    -7.7261 H       
  43 H43            1.0553    -4.2311    -5.3997 H       
@<TRIPOS>BOND
   1    1    2 ar
   2    1    6 ar
   3    1   29 1
   4    2    3 ar
   5    2   30 1
   6    3    4 ar
   7    3   28 1
   8    4    5 ar
   9    4    7 1
  10    5    6 ar
  11    5   10 1
  12    6   31 1
  13    7    8 1
  14    7   15 1
  15    8    9 2
  16    8   32 1
  17    9   10 1
  18    9   12 1
  19   10   11 2
  20   12   13 1
  21   12   14 2
  22   13   33 1
  23   15   16 1
  24   15   34 1
  25   15   35 1
  26   16   17 ar
  27   16   21 ar
  28   17   18 ar
  29   17   36 1
  30   18   19 ar
  31   19   20 ar
  32   19   22 1
  33   20   21 ar
  34   20   37 1
  35   21   38 1
  36   22   23 ar
  37   22   27 ar
  38   23   24 ar
  39   23   39 1
  40   24   25 ar
  41   24   40 1
  42   25   26 ar
  43   25   41 1
  44   26   27 ar
  45   26   42 1
  46   27   43 1

#	End of record

