#	Name: ASD01410842
#	Creating user name:	WinNT
#	Creation time:	15. 06. 2019 19:18

#	Modifying user name:	WinNT
#	Modification time:	15. 06. 2019 19:18

#	Program:	/corina/corina34_cracker 3.40 0067  02.08.2006

@<TRIPOS>MOLECULE
ASD01410842
 118  125    0    0    0
SMALL
NO_CHARGES


@<TRIPOS>ATOM
   1 C1             0.3580     2.4201     1.8371 C.3     
   2 C2             0.5906     1.1247     2.6490 C.3     
   3 N3             1.2729     1.5775     3.8787 N.am    
   4 C4             0.8855     2.9694     4.1392 C.3     
   5 C5            -0.0075     3.4241     2.9643 C.3     
   6 O6             1.5497     2.8216     1.1585 O.3     
   7 C7             0.1148     3.0536     5.4314 C.2     
   8 O8            -0.0950     2.0499     6.0790 O.2     
   9 N9            -0.3415     4.2445     5.8675 N.am    
  10 C10            1.5583     0.2074     1.8930 C.3     
  11 N11            1.9956    -0.8455     2.8185 N.am    
  12 C12            2.6073    -0.5044     4.1009 C.3     
  13 C13            2.1308     0.8322     4.5958 C.2     
  14 O14            2.5285     1.2465     5.6640 O.2     
  15 C15            2.2452    -1.5775     5.1297 C.3     
  16 C16            2.7691    -1.1621     6.5059 C.3     
  17 C17            0.7245    -1.7346     5.1891 C.3     
  18 C18           -1.1897     4.3119     7.0600 C.3     
  19 C19           -2.5428     3.6607     6.9328 C.2     
  20 N20           -2.9529     3.1863     5.7398 N.am    
  21 O21           -3.2628     3.5636     7.9040 O.2     
  22 S22           -4.4863     2.5841     5.5709 S.o2    
  23 C23           -5.5672     4.0150     5.8441 C.3     
  24 C24           -0.4986     4.2442     8.4233 C.3     
  25 C25           -1.0887     5.5672     7.9288 C.3     
  26 C26           -7.0764     3.7653     5.8713 C.3     
  27 C27           -6.3298     4.0816     7.1688 C.3     
  28 O28           -4.5499     2.1626     4.2154 O.2     
  29 O29           -4.6155     1.6512     6.6350 O.2     
  30 C30           -1.2343     3.5211     9.5532 C.3     
  31 C31           -0.3329     3.4540    10.7877 C.3     
  32 C32            1.4009     3.6257     0.0766 C.ar    
  33 C33            2.5231     4.0481    -0.6739 C.ar    
  34 C34            0.1591     4.0458    -0.3220 C.ar    
  35 C35            0.0321     4.8761    -1.4440 C.ar    
  36 N36            1.0880     5.2692    -2.1361 N.ar    
  37 C37            2.3236     4.8876    -1.7977 C.ar    
  38 C38           -1.3130     5.3222    -1.8634 C.2     
  39 S39           -2.8249     4.9052    -1.0606 S.3     
  40 C40            3.4384     5.3127    -2.5412 C.ar    
  41 C41            4.6998     4.9043    -2.1693 C.ar    
  42 C42            4.8836     4.0722    -1.0614 C.ar    
  43 C43            3.8211     3.6501    -0.3227 C.ar    
  44 Cl44           3.2260     6.3458    -3.9201 Cl      
  45 O45            5.7777     5.3143    -2.8877 O.3     
  46 C46            7.0597     4.8571    -2.4522 C.3     
  47 N47           -1.5706     6.0913    -2.8826 N.2     
  48 C48           -2.8286     6.3858    -3.1055 C.2     
  49 C49           -3.7123     5.8575    -2.2491 C.2     
  50 C50           -3.2534     7.2657    -4.2528 C.3     
  51 C51           -3.6395     6.3933    -5.4489 C.3     
  52 C52           -4.4561     8.1112    -3.8289 C.3     
  53 C53            1.8306    -2.1401     2.4818 C.2     
  54 C54            8.1422     5.4177    -3.3767 C.3     
  55 N55            8.1869     6.8803    -3.2478 N.3     
  56 C56            9.3630     7.4340    -3.9346 C.3     
  57 C57            1.2964    -2.5022     1.1200 C.3     
  58 O58            2.1120    -3.0135     3.2747 O.2     
  59 C59            9.3384     8.9610    -3.8265 C.3     
  60 O60            9.2907     9.3355    -2.4471 O.3     
  61 C61            8.1575     8.8139    -1.7477 C.3     
  62 C62            8.1702     7.2854    -1.8347 C.3     
  63 H63           -0.4678     2.2999     1.1359 H       
  64 H64           -0.3508     0.6249     2.8774 H       
  65 H65            1.7746     3.5976     4.1938 H       
  66 H66            0.2372     4.4437     2.6665 H       
  67 H67           -1.0621     3.3410     3.2273 H       
  68 H68           -0.1082     5.0570     5.3917 H       
  69 H69            1.0509    -0.2400     1.0383 H       
  70 H70            2.4204     0.7809     1.5526 H       
  71 H71            3.6905    -0.4758     3.9831 H       
  72 H72            2.6974    -2.5260     4.8399 H       
  73 H73            2.3169    -0.2136     6.7957 H       
  74 H74            2.5112    -1.9266     7.2388 H       
  75 H75            3.8525    -1.0502     6.4636 H       
  76 H76            0.2723    -0.7861     5.4789 H       
  77 H77            0.3512    -2.0305     4.2086 H       
  78 H78            0.4665    -2.4991     5.9220 H       
  79 H79           -2.3499     3.1976     4.9801 H       
  80 H80           -5.2202     4.9550     5.4149 H       
  81 H81            0.5873     4.1496     8.4329 H       
  82 H82           -0.3910     6.3429     7.6133 H       
  83 H83           -2.0009     5.9220     8.4087 H       
  84 H84           -7.7224     4.5412     5.4604 H       
  85 H85           -7.4198     2.7412     5.7251 H       
  86 H86           -6.1821     3.2656     7.8761 H       
  87 H87           -6.4846     5.0656     7.6114 H       
  88 H88           -2.1468     4.0644     9.7988 H       
  89 H89           -1.4881     2.5105     9.2333 H       
  90 H90           -0.8570     2.9388    11.5927 H       
  91 H91            0.5796     2.9107    10.5422 H       
  92 H92           -0.0791     4.4646    11.1077 H       
  93 H93           -0.7189     3.7378     0.2264 H       
  94 H94            5.8812     3.7630    -0.7862 H       
  95 H95            3.9772     3.0073     0.5311 H       
  96 H96            7.2401     5.1982    -1.4328 H       
  97 H97            7.0858     3.7678    -2.4808 H       
  98 H98           -4.7834     5.9925    -2.2805 H       
  99 H99           -2.4289     7.9215    -4.5325 H       
 100 H100          -4.4641     5.7376    -5.1692 H       
 101 H101          -3.9468     7.0298    -6.2787 H       
 102 H102          -2.7827     5.7910    -5.7509 H       
 103 H103          -4.1811     8.7327    -2.9767 H       
 104 H104          -4.7634     8.7476    -4.6587 H       
 105 H105          -5.2807     7.4554    -3.5492 H       
 106 H106           9.1095     4.9987    -3.0994 H       
 107 H107           7.9129     5.1507    -4.4084 H       
 108 H108          10.2707     7.0507    -3.4684 H       
 109 H109           9.3417     7.1430    -4.9848 H       
 110 H110           2.1153    -2.5178     0.4008 H       
 111 H111           0.8312    -3.4870     1.1623 H       
 112 H112           0.5563    -1.7637     0.8118 H       
 113 H113          10.2377     9.3728    -4.2846 H       
 114 H114           8.4579     9.3480    -4.3394 H       
 115 H115           8.2027     9.1193    -0.7024 H       
 116 H116           7.2427     9.1966    -2.2002 H       
 117 H117           7.2781     6.8860    -1.3521 H       
 118 H118           9.0588     6.8998    -1.3350 H       
@<TRIPOS>BOND
   1    1    2 1
   2    1    6 1
   3    1    5 1
   4    1   63 1
   5    2    3 1
   6    2   10 1
   7    2   64 1
   8    3    4 1
   9    3   13 am
  10    4    5 1
  11    4    7 1
  12    4   65 1
  13    5   66 1
  14    5   67 1
  15    6   32 1
  16    7    8 2
  17    7    9 am
  18    9   18 1
  19    9   68 1
  20   10   11 1
  21   10   69 1
  22   10   70 1
  23   11   12 1
  24   11   53 am
  25   12   13 1
  26   12   15 1
  27   12   71 1
  28   13   14 2
  29   15   16 1
  30   15   17 1
  31   15   72 1
  32   16   73 1
  33   16   74 1
  34   16   75 1
  35   17   76 1
  36   17   77 1
  37   17   78 1
  38   18   19 1
  39   18   24 1
  40   18   25 1
  41   19   20 am
  42   19   21 2
  43   20   22 am
  44   20   79 1
  45   22   23 1
  46   22   28 2
  47   22   29 2
  48   23   26 1
  49   23   27 1
  50   23   80 1
  51   24   25 1
  52   24   30 1
  53   24   81 1
  54   25   82 1
  55   25   83 1
  56   26   27 1
  57   26   84 1
  58   26   85 1
  59   27   86 1
  60   27   87 1
  61   30   31 1
  62   30   88 1
  63   30   89 1
  64   31   90 1
  65   31   91 1
  66   31   92 1
  67   32   33 ar
  68   32   34 ar
  69   33   37 ar
  70   33   43 ar
  71   34   35 ar
  72   34   93 1
  73   35   36 ar
  74   35   38 1
  75   36   37 ar
  76   37   40 ar
  77   38   47 2
  78   38   39 1
  79   39   49 1
  80   40   41 ar
  81   40   44 1
  82   41   42 ar
  83   41   45 1
  84   42   43 ar
  85   42   94 1
  86   43   95 1
  87   45   46 1
  88   46   54 1
  89   46   96 1
  90   46   97 1
  91   47   48 1
  92   48   49 2
  93   48   50 1
  94   49   98 1
  95   50   51 1
  96   50   52 1
  97   50   99 1
  98   51  100 1
  99   51  101 1
 100   51  102 1
 101   52  103 1
 102   52  104 1
 103   52  105 1
 104   53   57 1
 105   53   58 2
 106   54   55 1
 107   54  106 1
 108   54  107 1
 109   55   56 1
 110   55   62 1
 111   56   59 1
 112   56  108 1
 113   56  109 1
 114   57  110 1
 115   57  111 1
 116   57  112 1
 117   59   60 1
 118   59  113 1
 119   59  114 1
 120   60   61 1
 121   61   62 1
 122   61  115 1
 123   61  116 1
 124   62  117 1
 125   62  118 1

#	End of record

