#	Name: ASD01410192
#	Creating user name:	WinNT
#	Creation time:	15. 06. 2019 19:16

#	Modifying user name:	WinNT
#	Modification time:	15. 06. 2019 19:16

#	Program:	/corina/corina34_cracker 3.40 0067  02.08.2006

@<TRIPOS>MOLECULE
ASD01410192
  39   42    0    0    0
SMALL
NO_CHARGES


@<TRIPOS>ATOM
   1 C1            -0.0170     1.4058     0.0098 C.ar    
   2 C2             0.0021    -0.0041     0.0020 C.ar    
   3 C3            -1.2036    -0.7208     0.0101 C.ar    
   4 C4            -2.3909    -0.0562     0.0254 C.ar    
   5 C5            -2.4198     1.3468     0.0327 C.ar    
   6 C6            -1.2298     2.0744     0.0300 C.ar    
   7 N7             1.2963     1.8329    -0.0005 N.pl3   
   8 C8             2.1190     0.7323    -0.0142 C.2     
   9 C9             1.3621    -0.3951    -0.0131 C.2     
  10 C10           -3.7123     2.0540     0.0488 C.2     
  11 O11           -3.7401     3.2689     0.0552 O.2     
  12 O12           -4.8637     1.3535     0.0564 O.3     
  13 C13            5.7189     1.3118    -0.5299 C.2     
  14 O14            5.7033     0.3569     0.4126 O.3     
  15 C15            4.4450     0.0188     0.7268 C.2     
  16 C16            3.5970     0.7698    -0.0277 C.2     
  17 C17            4.4549     1.6247    -0.8583 C.2     
  18 C18            1.2647    -2.6289     1.1381 C.3     
  19 C19            1.3650    -4.0936     0.6645 C.3     
  20 C20            1.4349    -4.0550    -0.8721 C.3     
  21 C21            1.3747    -2.5681    -1.2788 C.3     
  22 C22            1.8785    -1.8108    -0.0251 C.3     
  23 H23           -1.1896    -1.8007     0.0038 H       
  24 H24           -3.3169    -0.6120     0.0315 H       
  25 H25           -1.2540     3.1541     0.0356 H       
  26 H26            1.5897     2.7575     0.0017 H       
  27 H27           -5.6865     1.8615     0.0670 H       
  28 H28            6.6057     1.7602    -0.9530 H       
  29 H29            4.1535    -0.7237     1.4548 H       
  30 H30            4.1344     2.3564    -1.5851 H       
  31 H31            0.2229    -2.3487     1.2934 H       
  32 H32            1.8403    -2.4832     2.0522 H       
  33 H33            2.2662    -4.5555     1.0678 H       
  34 H34            0.4843    -4.6506     0.9844 H       
  35 H35            2.3700    -4.4982    -1.2146 H       
  36 H36            0.5881    -4.5932    -1.2981 H       
  37 H37            2.0305    -2.3782    -2.1284 H       
  38 H38            0.3506    -2.2781    -1.5138 H       
  39 H39            2.9674    -1.8236     0.0223 H       
@<TRIPOS>BOND
   1    1    2 ar
   2    1    7 1
   3    1    6 ar
   4    2    3 ar
   5    2    9 1
   6    3    4 ar
   7    3   23 1
   8    4    5 ar
   9    4   24 1
  10    5    6 ar
  11    5   10 1
  12    6   25 1
  13    7    8 1
  14    7   26 1
  15    8    9 2
  16    8   16 1
  17    9   22 1
  18   10   11 2
  19   10   12 1
  20   12   27 1
  21   13   14 1
  22   13   17 2
  23   13   28 1
  24   14   15 1
  25   15   16 2
  26   15   29 1
  27   16   17 1
  28   17   30 1
  29   18   19 1
  30   18   22 1
  31   18   31 1
  32   18   32 1
  33   19   20 1
  34   19   33 1
  35   19   34 1
  36   20   21 1
  37   20   35 1
  38   20   36 1
  39   21   22 1
  40   21   37 1
  41   21   38 1
  42   22   39 1

#	End of record

