#	Name: ASD00170419
#	Creating user name:	WinNT
#	Creation time:	15. 06. 2019 18:32

#	Modifying user name:	WinNT
#	Modification time:	15. 06. 2019 18:32

#	Program:	/corina/corina34_cracker 3.40 0067  02.08.2006

@<TRIPOS>MOLECULE
ASD00170419
  74   78    0    0    0
SMALL
NO_CHARGES


@<TRIPOS>ATOM
   1 C1            -0.6214     0.8414    -0.2965 C.2     
   2 C2            -0.7450    -0.4521     0.1610 C.2     
   3 C3            -2.0677    -0.9943    -0.0438 C.2     
   4 C4            -2.9012    -0.1299    -0.6355 C.2     
   5 S5            -2.0915     1.3925    -0.9591 S.3     
   6 C6            -2.4679    -2.3883     0.3655 C.3     
   7 C7            -4.3127    -0.4173    -0.9666 C.ar    
   8 C8            -5.3120     0.4950    -0.6229 C.ar    
   9 C9            -6.6274     0.2233    -0.9340 C.ar    
  10 C10           -6.9589    -0.9558    -1.5879 C.ar    
  11 C11           -5.9681    -1.8657    -1.9315 C.ar    
  12 C12           -4.6496    -1.5991    -1.6291 C.ar    
  13 N13            0.5334     1.5906    -0.2229 N.pl3   
  14 C14            0.3476    -1.1973     0.7874 C.2     
  15 C15            1.2216    -2.0598    -0.0363 C.ar    
  16 O16            0.5369    -1.1072     1.9869 O.2     
  17 C17            2.3302    -2.6855     0.5372 C.ar    
  18 C18            3.1414    -3.4891    -0.2359 C.ar    
  19 C19            2.8586    -3.6757    -1.5789 C.ar    
  20 C20            1.7604    -3.0572    -2.1536 C.ar    
  21 C21            0.9384    -2.2563    -1.3892 C.ar    
  22 Cl22           3.8848    -4.6884    -2.5460 Cl      
  23 N23           -2.2718    -2.5492     1.8124 N.3     
  24 C24           -3.3778    -1.9415     2.5644 C.3     
  25 C25           -3.2777    -0.4173     2.4761 C.3     
  26 C26           -4.4296     0.2156     3.2593 C.3     
  27 C27           -5.7629    -0.2432     2.6653 C.3     
  28 C28           -5.8630    -1.7673     2.7535 C.3     
  29 C29           -4.7111    -2.4003     1.9704 C.3     
  30 C30           -2.1093    -3.9653     2.1674 C.3     
  31 C31           -0.8367    -4.5114     1.5169 C.3     
  32 C32           -0.6674    -5.9864     1.8867 C.3     
  33 C33           -0.5617    -6.1222     3.4070 C.3     
  34 C34           -1.8343    -5.5761     4.0575 C.3     
  35 C35           -2.0035    -4.1011     3.6877 C.3     
  36 O36           -8.2569    -1.2202    -1.8920 O.3     
  37 C37           -8.5277    -2.4513    -2.5650 C.3     
  38 H38           -3.5174    -2.5517     0.1207 H       
  39 H39           -1.8534    -3.1140    -0.1673 H       
  40 H40           -5.0551     1.4121    -0.1136 H       
  41 H41           -7.4011     0.9285    -0.6685 H       
  42 H42           -6.2302    -2.7817    -2.4401 H       
  43 H43           -3.8795    -2.3072    -1.8971 H       
  44 H44            1.3111     1.2389     0.2381 H       
  45 H45            0.5684     2.4693    -0.6322 H       
  46 H46            2.5521    -2.5401     1.5841 H       
  47 H47            3.9992    -3.9736     0.2066 H       
  48 H48            1.5451    -3.2062    -3.2014 H       
  49 H49            0.0824    -1.7746    -1.8383 H       
  50 H50           -3.3199    -2.2496     3.6083 H       
  51 H51           -2.3278    -0.0905     2.8993 H       
  52 H52           -3.3356    -0.1092     1.4322 H       
  53 H53           -4.3718    -0.0925     4.3033 H       
  54 H54           -4.3583     1.3014     3.1965 H       
  55 H55           -6.5836     0.2077     3.2233 H       
  56 H56           -5.8208     0.0649     1.6214 H       
  57 H57           -5.8051    -2.0755     3.7975 H       
  58 H58           -6.8128    -2.0942     2.3304 H       
  59 H59           -4.7689    -2.0922     0.9264 H       
  60 H60           -4.7824    -3.4861     2.0332 H       
  61 H61           -2.9707    -4.5304     1.8113 H       
  62 H62           -0.9120    -4.4147     0.4338 H       
  63 H63            0.0247    -3.9464     1.8731 H       
  64 H64           -1.5288    -6.5514     1.5305 H       
  65 H65            0.2392    -6.3755     1.4232 H       
  66 H66           -0.4411    -7.1730     3.6704 H       
  67 H67            0.2997    -5.5571     3.7632 H       
  68 H68           -2.6957    -6.1411     3.7013 H       
  69 H69           -1.7589    -5.6728     5.1406 H       
  70 H70           -1.1421    -3.5361     4.0439 H       
  71 H71           -2.9101    -3.7121     4.1512 H       
  72 H72           -9.5988    -2.5376    -2.7476 H       
  73 H73           -7.9943    -2.4708    -3.5155 H       
  74 H74           -8.1964    -3.2847    -1.9454 H       
@<TRIPOS>BOND
   1    1    2 2
   2    1   13 1
   3    1    5 1
   4    2    3 1
   5    2   14 1
   6    3    4 2
   7    3    6 1
   8    4    5 1
   9    4    7 1
  10    6   23 1
  11    6   38 1
  12    6   39 1
  13    7    8 ar
  14    7   12 ar
  15    8    9 ar
  16    8   40 1
  17    9   10 ar
  18    9   41 1
  19   10   11 ar
  20   10   36 1
  21   11   12 ar
  22   11   42 1
  23   12   43 1
  24   13   44 1
  25   13   45 1
  26   14   15 1
  27   14   16 2
  28   15   17 ar
  29   15   21 ar
  30   17   18 ar
  31   17   46 1
  32   18   19 ar
  33   18   47 1
  34   19   20 ar
  35   19   22 1
  36   20   21 ar
  37   20   48 1
  38   21   49 1
  39   23   24 1
  40   23   30 1
  41   24   25 1
  42   24   29 1
  43   24   50 1
  44   25   26 1
  45   25   51 1
  46   25   52 1
  47   26   27 1
  48   26   53 1
  49   26   54 1
  50   27   28 1
  51   27   55 1
  52   27   56 1
  53   28   29 1
  54   28   57 1
  55   28   58 1
  56   29   59 1
  57   29   60 1
  58   30   31 1
  59   30   35 1
  60   30   61 1
  61   31   32 1
  62   31   62 1
  63   31   63 1
  64   32   33 1
  65   32   64 1
  66   32   65 1
  67   33   34 1
  68   33   66 1
  69   33   67 1
  70   34   35 1
  71   34   68 1
  72   34   69 1
  73   35   70 1
  74   35   71 1
  75   36   37 1
  76   37   72 1
  77   37   73 1
  78   37   74 1

#	End of record

