#	Name: ASD09610094
#	Creating user name:	WinNT
#	Creation time:	15. 06. 2019 21:22

#	Modifying user name:	WinNT
#	Modification time:	15. 06. 2019 21:22

#	Program:	/corina/corina34_cracker 3.40 0067  02.08.2006

@<TRIPOS>MOLECULE
ASD09610094
  49   51    0    0    0
SMALL
NO_CHARGES


@<TRIPOS>ATOM
   1 C1            -1.1567    -0.6958     0.0089 C.2     
   2 N2             0.0008    -0.0054     0.0073 N.am    
   3 O3            -1.1395    -1.9106    -0.0064 O.2     
   4 O4            -2.3320    -0.0395     0.0330 O.3     
   5 C5             1.2162    -0.6822     0.0976 C.ar    
   6 C6             2.4082     0.0248    -0.0136 C.ar    
   7 C7             3.6074    -0.6592     0.0779 C.ar    
   8 C8             3.5729    -2.0326     0.2782 C.ar    
   9 C9             2.3526    -2.6705     0.3795 C.ar    
  10 N10            1.2249    -1.9911     0.2937 N.ar    
  11 C11            2.3083    -4.1612     0.5965 C.3     
  12 O12            3.6348    -4.6898     0.5441 O.3     
  13 N13            3.6956    -6.1022     0.6255 N.2     
  14 C14            4.8503    -6.7019     0.6870 C.2     
  15 C15            4.9135    -8.1693     0.8843 C.ar    
  16 C16            3.7386    -8.9107     1.0044 C.ar    
  17 C17            3.8037   -10.2768     1.1874 C.ar    
  18 C18            5.0315   -10.9110     1.2519 C.ar    
  19 C19            6.2006   -10.1808     1.1339 C.ar    
  20 C20            6.1480    -8.8149     0.9447 C.ar    
  21 N21            6.7146    -5.5545    -0.5903 N.pl3   
  22 N22            7.7664    -4.8848    -0.2594 N.2     
  23 N23            7.8341    -4.8150     1.0237 N.2     
  24 N24            6.8323    -5.4351     1.5449 N.2     
  25 C25            6.0981    -5.9185     0.5600 C.2     
  26 C26            6.2679    -5.8583    -1.9520 C.3     
  27 C27           -3.5384    -0.8475     0.0332 C.3     
  28 C28           -4.7647     0.0670     0.0621 C.3     
  29 C29           -5.9877    -0.7522     0.0623 C.1     
  30 C30           -6.9632    -1.4055     0.0625 C.1     
  31 H31           -0.0118     0.9624    -0.0567 H       
  32 H32            2.3982     1.0935    -0.1696 H       
  33 H33            4.5489    -0.1367    -0.0051 H       
  34 H34            4.4911    -2.5962     0.3537 H       
  35 H35            1.8708    -4.3735     1.5720 H       
  36 H36            1.7018    -4.6238    -0.1822 H       
  37 H37            2.7795    -8.4166     0.9545 H       
  38 H38            2.8945   -10.8520     1.2809 H       
  39 H39            5.0776   -11.9805     1.3953 H       
  40 H40            7.1562   -10.6813     1.1853 H       
  41 H41            7.0612    -8.2465     0.8483 H       
  42 H42            6.6325    -6.8435    -2.2427 H       
  43 H43            5.1785    -5.8490    -1.9876 H       
  44 H44            6.6602    -5.1085    -2.6390 H       
  45 H45           -3.5644    -1.4618    -0.8669 H       
  46 H46           -3.5444    -1.4913     0.9127 H       
  47 H47           -4.7387     0.6812     0.9622 H       
  48 H48           -4.7588     0.7107    -0.8174 H       
  49 H49           -7.8356    -1.9898     0.0626 H       
@<TRIPOS>BOND
   1    1    2 am
   2    1    3 2
   3    1    4 1
   4    2    5 1
   5    2   31 1
   6    4   27 1
   7    5    6 ar
   8    5   10 ar
   9    6    7 ar
  10    6   32 1
  11    7    8 ar
  12    7   33 1
  13    8    9 ar
  14    8   34 1
  15    9   10 ar
  16    9   11 1
  17   11   12 1
  18   11   35 1
  19   11   36 1
  20   12   13 1
  21   13   14 2
  22   14   15 1
  23   14   25 1
  24   15   16 ar
  25   15   20 ar
  26   16   17 ar
  27   16   37 1
  28   17   18 ar
  29   17   38 1
  30   18   19 ar
  31   18   39 1
  32   19   20 ar
  33   19   40 1
  34   20   41 1
  35   21   22 1
  36   21   25 1
  37   21   26 1
  38   22   23 2
  39   23   24 1
  40   24   25 2
  41   26   42 1
  42   26   43 1
  43   26   44 1
  44   27   28 1
  45   27   45 1
  46   27   46 1
  47   28   29 1
  48   28   47 1
  49   28   48 1
  50   29   30 3
  51   30   49 1

#	End of record

