#	Name: ASD03910135
#	Creating user name:	WinNT
#	Creation time:	15. 06. 2019 20:47

#	Modifying user name:	WinNT
#	Modification time:	15. 06. 2019 20:47

#	Program:	/corina/corina34_cracker 3.40 0067  02.08.2006

@<TRIPOS>MOLECULE
ASD03910135
  43   45    0    0    0
SMALL
NO_CHARGES


@<TRIPOS>ATOM
   1 C1             0.0239     1.4170     0.0699 C.ar    
   2 N2            -0.0734     0.1037     0.0269 N.ar    
   3 C3             1.0022    -0.6715    -0.0474 C.ar    
   4 C4             2.2790    -0.1099    -0.0820 C.ar    
   5 C5             2.4090     1.2666    -0.0381 C.ar    
   6 C6             1.2580     2.0391     0.0390 C.ar    
   7 C7             0.8456    -2.1414    -0.0935 C.2     
   8 N8             0.1421    -2.8503    -1.0217 N.pl3   
   9 N9             0.2538    -4.2080    -0.6953 N.2     
  10 C10            0.9909    -4.3174     0.3811 C.2     
  11 C11            1.3840    -3.0411     0.7830 C.2     
  12 C12           -0.5976    -2.2925    -2.1565 C.3     
  13 C13            0.0497    -2.7540    -3.4637 C.3     
  14 C14           -2.0482    -2.7763    -2.1071 C.3     
  15 C15            3.4991    -0.9905    -0.1653 C.3     
  16 O16            4.6639    -0.1771    -0.3196 O.3     
  17 C17            5.8424    -0.8197    -0.5121 C.ar    
  18 C18            5.9025    -2.2032    -0.4359 C.ar    
  19 C19            7.1029    -2.8561    -0.6322 C.ar    
  20 C20            8.2565    -2.1382    -0.9069 C.ar    
  21 C21            8.2182    -0.7643    -0.9868 C.ar    
  22 C22            7.0072    -0.0880    -0.7955 C.ar    
  23 C23            6.9566     1.3763    -0.8845 C.2     
  24 O24            7.9650     2.0042    -1.1294 O.2     
  25 H25           -0.8732     2.0158     0.1257 H       
  26 H26            3.3842     1.7301    -0.0632 H       
  27 H27            1.3262     3.1164     0.0744 H       
  28 H28            1.2538    -5.2420     0.8734 H       
  29 H29            2.0026    -2.8055     1.6363 H       
  30 H30           -0.5756    -1.2039    -2.1047 H       
  31 H31            1.1063    -2.4861    -3.4604 H       
  32 H32           -0.0506    -3.8354    -3.5568 H       
  33 H33           -0.4454    -2.2694    -4.3053 H       
  34 H34           -2.5094    -2.4474    -1.1758 H       
  35 H35           -2.5986    -2.3612    -2.9514 H       
  36 H36           -2.0702    -3.8648    -2.1589 H       
  37 H37            3.5854    -1.5793     0.7479 H       
  38 H38            3.4069    -1.6590    -1.0213 H       
  39 H39            5.0088    -2.7707    -0.2223 H       
  40 H40            7.1436    -3.9336    -0.5709 H       
  41 H41            9.1902    -2.6593    -1.0587 H       
  42 H42            9.1197    -0.2095    -1.2008 H       
  43 H43            6.0214     1.8946    -0.7318 H       
@<TRIPOS>BOND
   1    1    2 ar
   2    1    6 ar
   3    1   25 1
   4    2    3 ar
   5    3    4 ar
   6    3    7 1
   7    4    5 ar
   8    4   15 1
   9    5    6 ar
  10    5   26 1
  11    6   27 1
  12    7    8 1
  13    7   11 2
  14    8    9 1
  15    8   12 1
  16    9   10 2
  17   10   11 1
  18   10   28 1
  19   11   29 1
  20   12   13 1
  21   12   14 1
  22   12   30 1
  23   13   31 1
  24   13   32 1
  25   13   33 1
  26   14   34 1
  27   14   35 1
  28   14   36 1
  29   15   16 1
  30   15   37 1
  31   15   38 1
  32   16   17 1
  33   17   18 ar
  34   17   22 ar
  35   18   19 ar
  36   18   39 1
  37   19   20 ar
  38   19   40 1
  39   20   21 ar
  40   20   41 1
  41   21   22 ar
  42   21   42 1
  43   22   23 1
  44   23   24 2
  45   23   43 1

#	End of record

