#	Name: ASD02500819
#	Creating user name:	WinNT
#	Creation time:	15. 06. 2019 20:23

#	Modifying user name:	WinNT
#	Modification time:	15. 06. 2019 20:23

#	Program:	/corina/corina34_cracker 3.40 0067  02.08.2006

@<TRIPOS>MOLECULE
ASD02500819
  36   39    0    0    0
SMALL
NO_CHARGES


@<TRIPOS>ATOM
   1 C1            -0.0169     1.3922     0.0097 C.2     
   2 C2             0.0021    -0.0041     0.0020 C.2     
   3 C3            -1.2336    -0.6954     0.0101 C.2     
   4 N4            -2.3826     0.0097     0.0249 N.am    
   5 N5            -2.3712     1.4073     0.0323 N.2     
   6 C6            -1.2530     2.0768     0.0303 C.2     
   7 C7             1.3824     1.8297    -0.0013 C.2     
   8 C8             2.1637     0.6893    -0.0149 C.2     
   9 N9             1.3090    -0.4170    -0.0127 N.pl3   
  10 S10            2.4028     3.2627    -0.0034 S.3     
  11 C11            3.8574     2.2792    -0.0225 C.2     
  12 C12            3.5270     0.9586    -0.0265 C.2     
  13 O13           -1.2582    -1.9154     0.0034 O.2     
  14 C14           -3.6639    -0.7006     0.0328 C.3     
  15 C15           -4.0900    -0.9522     1.4563 C.ar    
  16 C16           -4.6857     0.0594     2.1899 C.ar    
  17 C17           -5.0767    -0.1732     3.4978 C.ar    
  18 C18           -4.8718    -1.4146     4.0691 C.ar    
  19 C19           -4.2767    -2.4242     3.3355 C.ar    
  20 C20           -3.8913    -2.1948     2.0280 C.ar    
  21 F21           -4.8851     1.2729     1.6304 F       
  22 C22            5.1788     2.7850    -0.0324 C.2     
  23 O23            5.3699     3.9841    -0.0274 O.2     
  24 C24            1.7468    -1.8150    -0.0244 C.3     
  25 H25           -1.2711     3.1567     0.0362 H       
  26 H26            4.2713     0.1761    -0.0377 H       
  27 H27           -4.4179    -0.0954    -0.4706 H       
  28 H28           -3.5551    -1.6522    -0.4875 H       
  29 H29           -5.5412     0.6153     4.0712 H       
  30 H30           -5.1763    -1.5961     5.0893 H       
  31 H31           -4.1167    -3.3940     3.7830 H       
  32 H32           -3.4265    -2.9842     1.4559 H       
  33 H33            6.0174     2.1046    -0.0445 H       
  34 H34            1.8655    -2.1672     1.0003 H       
  35 H35            1.0009    -2.4250    -0.5340 H       
  36 H36            2.6995    -1.8931    -0.5481 H       
@<TRIPOS>BOND
   1    1    2 2
   2    1    7 1
   3    1    6 1
   4    2    3 1
   5    2    9 1
   6    3    4 am
   7    3   13 2
   8    4    5 1
   9    4   14 1
  10    5    6 2
  11    6   25 1
  12    7    8 2
  13    7   10 1
  14    8    9 1
  15    8   12 1
  16    9   24 1
  17   10   11 1
  18   11   12 2
  19   11   22 1
  20   12   26 1
  21   14   15 1
  22   14   27 1
  23   14   28 1
  24   15   16 ar
  25   15   20 ar
  26   16   17 ar
  27   16   21 1
  28   17   18 ar
  29   17   29 1
  30   18   19 ar
  31   18   30 1
  32   19   20 ar
  33   19   31 1
  34   20   32 1
  35   22   23 2
  36   22   33 1
  37   24   34 1
  38   24   35 1
  39   24   36 1

#	End of record

