#	Name: ASD02190015
#	Creating user name:	WinNT
#	Creation time:	15. 06. 2019 20:18

#	Modifying user name:	WinNT
#	Modification time:	15. 06. 2019 20:18

#	Program:	/corina/corina34_cracker 3.40 0067  02.08.2006

@<TRIPOS>MOLECULE
ASD02190015
  44   46    0    0    0
SMALL
NO_CHARGES


@<TRIPOS>ATOM
   1 C1            -0.0168     1.3329    -0.1029 C.ar    
   2 N2             0.0048     0.0100    -0.1385 N.ar    
   3 C3            -1.1235    -0.6918    -0.1147 C.ar    
   4 N4            -2.3105    -0.0983    -0.0545 N.ar    
   5 C5            -2.4026     1.2262    -0.0162 C.ar    
   6 C6            -1.2319     1.9888    -0.0342 C.ar    
   7 N7            -3.6427     1.8432     0.0461 N.pl3   
   8 C8            -4.8092     1.0794    -0.0529 C.ar    
   9 C9            -5.9526     1.4621     0.6368 C.ar    
  10 C10           -7.1033     0.7052     0.5369 C.ar    
  11 C11           -7.1182    -0.4327    -0.2488 C.ar    
  12 C12           -5.9817    -0.8166    -0.9368 C.ar    
  13 C13           -4.8293    -0.0610    -0.8458 C.ar    
  14 C14           -8.3756    -1.2566    -0.3551 C.3     
  15 C15           -1.0562    -2.1644    -0.1564 C.2     
  16 C16            0.0794    -2.8911    -0.2187 C.2     
  17 C17           -0.1100    -4.2549    -0.2474 C.2     
  18 C18           -1.3890    -4.6508    -0.2093 C.2     
  19 S19           -2.4432    -3.2456    -0.1252 S.3     
  20 Cl20          -1.9250    -6.3018    -0.2324 Cl      
  21 C21            1.2704     2.1161    -0.1307 C.3     
  22 C22           -1.2660     3.9645     1.4640 C.3     
  23 C23           -1.2929     3.4940     0.0084 C.3     
  24 C24           -9.2088    -0.7552    -1.5065 C.2     
  25 O25           -8.8212     0.1755    -2.1724 O.2     
  26 O26          -10.3813    -1.3427    -1.7922 O.3     
  27 H27           -3.7008     2.8050     0.1584 H       
  28 H28           -5.9415     2.3505     1.2509 H       
  29 H29           -7.9925     1.0020     1.0732 H       
  30 H30           -5.9967    -1.7059    -1.5495 H       
  31 H31           -3.9421    -0.3612    -1.3836 H       
  32 H32           -8.1126    -2.3007    -0.5245 H       
  33 H33           -8.9454    -1.1709     0.5701 H       
  34 H34            1.0597    -2.4387    -0.2443 H       
  35 H35            0.7120    -4.9536    -0.2973 H       
  36 H36            1.5421     2.3320    -1.1639 H       
  37 H37            1.1384     3.0514     0.4133 H       
  38 H38            2.0616     1.5315     0.3386 H       
  39 H39           -2.1232     3.5509     1.9954 H       
  40 H40           -0.3456     3.6246     1.9388 H       
  41 H41           -1.3102     5.0532     1.4948 H       
  42 H42           -0.4358     3.9075    -0.5230 H       
  43 H43           -2.2133     3.8339    -0.4664 H       
  44 H44          -10.8803    -0.9862    -2.5399 H       
@<TRIPOS>BOND
   1    1    2 ar
   2    1   21 1
   3    1    6 ar
   4    2    3 ar
   5    3    4 ar
   6    3   15 1
   7    4    5 ar
   8    5    6 ar
   9    5    7 1
  10    6   23 1
  11    7    8 1
  12    7   27 1
  13    8    9 ar
  14    8   13 ar
  15    9   10 ar
  16    9   28 1
  17   10   11 ar
  18   10   29 1
  19   11   12 ar
  20   11   14 1
  21   12   13 ar
  22   12   30 1
  23   13   31 1
  24   14   24 1
  25   14   32 1
  26   14   33 1
  27   15   16 2
  28   15   19 1
  29   16   17 1
  30   16   34 1
  31   17   18 2
  32   17   35 1
  33   18   19 1
  34   18   20 1
  35   21   36 1
  36   21   37 1
  37   21   38 1
  38   22   23 1
  39   22   39 1
  40   22   40 1
  41   22   41 1
  42   23   42 1
  43   23   43 1
  44   24   25 2
  45   24   26 1
  46   26   44 1

#	End of record

