#	Name: ASD05060054
#	Creating user name:	WinNT
#	Creation time:	15. 06. 2019 20:56

#	Modifying user name:	WinNT
#	Modification time:	15. 06. 2019 20:56

#	Program:	/corina/corina34_cracker 3.40 0067  02.08.2006

@<TRIPOS>MOLECULE
ASD05060054
  60   63    0    0    0
SMALL
NO_CHARGES


@<TRIPOS>ATOM
   1 C1            -2.4895    -2.9976    -0.0318 C.2     
   2 C2            -1.2333    -2.2166     0.0418 C.2     
   3 C3            -0.0394    -2.8485    -0.0228 C.2     
   4 C4             1.1966    -2.0694    -0.1582 C.2     
   5 O5            -2.4474    -4.2062    -0.1502 O.2     
   6 N6            -3.6793    -2.3684     0.0382 N.am    
   7 N7            -4.8676    -3.1072    -0.0314 N.am    
   8 C8            -5.3538    -3.8580     0.9721 C.2     
   9 C9            -6.6450    -4.5217     0.5468 C.3     
  10 C10           -6.6477    -4.3935    -0.9941 C.3     
  11 C11           -5.7447    -3.1560    -1.2070 C.3     
  12 O12           -4.8329    -3.9850     2.0599 O.2     
  13 O13            1.1416    -0.8652    -0.3306 O.2     
  14 O14           -1.2802    -0.8703     0.1738 O.3     
  15 C15            3.7061    -1.9899    -0.1052 C.2     
  16 C16            2.5020    -2.7429    -0.0856 C.2     
  17 C17            2.5798    -4.1325     0.0042 C.2     
  18 C18            3.8349    -4.7350     0.0716 C.2     
  19 C19            4.9595    -3.9732     0.0496 C.2     
  20 N20            4.8923    -2.6236    -0.0374 N.am    
  21 O21            3.6660    -0.7747    -0.1881 O.2     
  22 C22            3.9446    -6.2348     0.1696 C.3     
  23 C23            3.8250    -6.6540     1.6122 C.ar    
  24 C24            2.5745    -6.8413     2.1772 C.ar    
  25 C25            2.4650    -7.2268     3.5019 C.ar    
  26 C26            3.6059    -7.4246     4.2607 C.ar    
  27 C27            4.8549    -7.2367     3.6938 C.ar    
  28 C28            4.9632    -6.8569     2.3691 C.ar    
  29 F29            3.5004    -7.8005     5.5541 F       
  30 F30            1.4620    -6.6475     1.4356 F       
  31 C31            6.1301    -1.8403    -0.0586 C.3     
  32 C32            6.5217    -1.4815     1.3517 C.ar    
  33 C33            7.1654    -2.4127     2.1496 C.ar    
  34 C34            7.5253    -2.0827     3.4445 C.ar    
  35 C35            7.2415    -0.8219     3.9408 C.ar    
  36 C36            6.5979     0.1074     3.1414 C.ar    
  37 C37            6.2436    -0.2215     1.8464 C.ar    
  38 F38            7.5919    -0.4986     5.2049 F       
  39 F39            7.4414    -3.6429     1.6641 F       
  40 H40            0.0043    -3.9265     0.0252 H       
  41 H41           -3.7129    -1.4040     0.1368 H       
  42 H42           -6.6500    -5.5709     0.8423 H       
  43 H43           -7.5011    -3.9999     0.9745 H       
  44 H44           -6.2176    -5.2800    -1.4601 H       
  45 H45           -7.6544    -4.2075    -1.3683 H       
  46 H46           -6.3486    -2.2505    -1.2649 H       
  47 H47           -5.1527    -3.2742    -2.1146 H       
  48 H48           -0.4155    -0.4576     0.3042 H       
  49 H49            1.6818    -4.7322     0.0216 H       
  50 H50            5.9255    -4.4531     0.1029 H       
  51 H51            3.1453    -6.6962    -0.4103 H       
  52 H52            4.9098    -6.5549    -0.2229 H       
  53 H53            1.4903    -7.3727     3.9434 H       
  54 H54            5.7451    -7.3910     4.2856 H       
  55 H55            5.9380    -6.7145     1.9265 H       
  56 H56            6.9245    -2.4286    -0.5178 H       
  57 H57            5.9734    -0.9287    -0.6353 H       
  58 H58            8.0270    -2.8084     4.0676 H       
  59 H59            6.3764     1.0911     3.5283 H       
  60 H60            5.7453     0.5054     1.2221 H       
@<TRIPOS>BOND
   1    1    2 1
   2    1    5 2
   3    1    6 am
   4    2    3 2
   5    2   14 1
   6    3    4 1
   7    3   40 1
   8    4   13 2
   9    4   16 1
  10    6    7 1
  11    6   41 1
  12    7    8 am
  13    7   11 1
  14    8    9 1
  15    8   12 2
  16    9   10 1
  17    9   42 1
  18    9   43 1
  19   10   11 1
  20   10   44 1
  21   10   45 1
  22   11   46 1
  23   11   47 1
  24   14   48 1
  25   15   16 1
  26   15   20 am
  27   15   21 2
  28   16   17 2
  29   17   18 1
  30   17   49 1
  31   18   19 2
  32   18   22 1
  33   19   20 1
  34   19   50 1
  35   20   31 1
  36   22   23 1
  37   22   51 1
  38   22   52 1
  39   23   24 ar
  40   23   28 ar
  41   24   25 ar
  42   24   30 1
  43   25   26 ar
  44   25   53 1
  45   26   27 ar
  46   26   29 1
  47   27   28 ar
  48   27   54 1
  49   28   55 1
  50   31   32 1
  51   31   56 1
  52   31   57 1
  53   32   33 ar
  54   32   37 ar
  55   33   34 ar
  56   33   39 1
  57   34   35 ar
  58   34   58 1
  59   35   36 ar
  60   35   38 1
  61   36   37 ar
  62   36   59 1
  63   37   60 1

#	End of record

