#	Name: ASD04910341
#	Creating user name:	WinNT
#	Creation time:	15. 06. 2019 20:55

#	Modifying user name:	WinNT
#	Modification time:	15. 06. 2019 20:55

#	Program:	/corina/corina34_cracker 3.40 0067  02.08.2006

@<TRIPOS>MOLECULE
ASD04910341
  62   65    0    0    0
SMALL
NO_CHARGES


@<TRIPOS>ATOM
   1 C1             2.4103     1.5805    -0.2108 C.2     
   2 C2             2.0170     0.1267    -0.1577 C.3     
   3 C3             3.2702    -0.7448    -0.2619 C.3     
   4 O4             3.5736     1.8880    -0.3207 O.2     
   5 O5             1.4678     2.5337    -0.1415 O.3     
   6 C6             3.8337    -3.1153    -0.2853 C.2     
   7 C7             3.4479    -4.5416    -0.2332 C.ar    
   8 C8             4.4249    -5.5353    -0.3107 C.ar    
   9 C9             4.0582    -6.8643    -0.2610 C.ar    
  10 C10            2.7252    -7.2130    -0.1351 C.ar    
  11 C11            1.7517    -6.2329    -0.0577 C.ar    
  12 C12            2.1055    -4.9001    -0.1005 C.ar    
  13 O13            5.0040    -2.8059    -0.3959 O.2     
  14 N14            2.8879    -2.1581    -0.2102 N.am    
  15 C15            2.3318    -8.6668    -0.0825 C.3     
  16 C16            2.0874    -9.0767     1.3712 C.3     
  17 O17            1.1368    -8.8647    -0.8406 O.3     
  18 C18            1.2791    -9.0516    -2.1795 C.ar    
  19 C19            0.1733    -9.3620    -2.9578 C.ar    
  20 C20            0.3173    -9.5515    -4.3178 C.ar    
  21 C21            1.5689    -9.4314    -4.9065 C.ar    
  22 C22            2.6751    -9.1208    -4.1273 C.ar    
  23 C23            2.5292    -8.9263    -2.7682 C.ar    
  24 N24            1.7158    -9.6244    -6.2883 N.pl3   
  25 N25            0.6915    -9.9404    -7.1902 N.2     
  26 C26            1.2151   -10.0400    -8.3857 C.2     
  27 C27            2.5880    -9.7911    -8.2845 C.2     
  28 C28            2.8700    -9.5325    -6.9862 C.2     
  29 C29            3.5772    -9.8025    -9.4213 C.3     
  30 F30            2.9123   -10.1029   -10.6150 F       
  31 F31            4.1803    -8.5446    -9.5273 F       
  32 F32            4.5572   -10.7705    -9.1771 F       
  33 C33            1.8176   -10.5812     1.4384 C.3     
  34 C34            1.6525   -11.2081     2.8243 C.3     
  35 C35            0.4348   -11.0304     1.9150 C.3     
  36 C36            1.9193     3.9125    -0.1987 C.3     
  37 H37            1.5094    -0.0782     0.7849 H       
  38 H38            1.3474    -0.0991    -0.9876 H       
  39 H39            3.7779    -0.5400    -1.2044 H       
  40 H40            3.9398    -0.5190     0.5680 H       
  41 H41            5.4657    -5.2644    -0.4098 H       
  42 H42            4.8132    -7.6342    -0.3209 H       
  43 H43            0.7130    -6.5117     0.0405 H       
  44 H44            1.3451    -4.1359    -0.0355 H       
  45 H45            1.9540    -2.4050    -0.1220 H       
  46 H46            3.1330    -9.2754    -0.5018 H       
  47 H47            2.9673    -8.8383     1.9688 H       
  48 H48            1.2256    -8.5352     1.7614 H       
  49 H49           -0.8002    -9.4558    -2.4997 H       
  50 H50           -0.5435    -9.7935    -4.9235 H       
  51 H51            3.6489    -9.0272    -4.5848 H       
  52 H52            3.3889    -8.6802    -2.1626 H       
  53 H53            0.6795   -10.2744    -9.2938 H       
  54 H54            3.8429    -9.2977    -6.5803 H       
  55 H55            2.3046   -11.1810     0.6695 H       
  56 H56            2.0305   -12.2204     2.9670 H       
  57 H57            1.7360   -10.5487     3.6881 H       
  58 H58           -0.2826   -10.2540     2.1807 H       
  59 H59            0.0118   -11.9258     1.4596 H       
  60 H60            2.5955     4.1083     0.6335 H       
  61 H61            2.4418     4.0851    -1.1397 H       
  62 H62            1.0596     4.5794    -0.1329 H       
@<TRIPOS>BOND
   1    1    2 1
   2    1    4 2
   3    1    5 1
   4    2    3 1
   5    2   37 1
   6    2   38 1
   7    3   14 1
   8    3   39 1
   9    3   40 1
  10    5   36 1
  11    6    7 1
  12    6   13 2
  13    6   14 am
  14    7    8 ar
  15    7   12 ar
  16    8    9 ar
  17    8   41 1
  18    9   10 ar
  19    9   42 1
  20   10   11 ar
  21   10   15 1
  22   11   12 ar
  23   11   43 1
  24   12   44 1
  25   14   45 1
  26   15   16 1
  27   15   17 1
  28   15   46 1
  29   16   33 1
  30   16   47 1
  31   16   48 1
  32   17   18 1
  33   18   19 ar
  34   18   23 ar
  35   19   20 ar
  36   19   49 1
  37   20   21 ar
  38   20   50 1
  39   21   22 ar
  40   21   24 1
  41   22   23 ar
  42   22   51 1
  43   23   52 1
  44   24   25 1
  45   24   28 1
  46   25   26 2
  47   26   27 1
  48   26   53 1
  49   27   28 2
  50   27   29 1
  51   28   54 1
  52   29   30 1
  53   29   31 1
  54   29   32 1
  55   33   34 1
  56   33   35 1
  57   33   55 1
  58   34   35 1
  59   34   56 1
  60   34   57 1
  61   35   58 1
  62   35   59 1
  63   36   60 1
  64   36   61 1
  65   36   62 1

#	End of record

