#	Name: ASD01208419
#	Creating user name:	WinNT
#	Creation time:	15. 06. 2019 19:09

#	Modifying user name:	WinNT
#	Modification time:	15. 06. 2019 19:09

#	Program:	/corina/corina34_cracker 3.40 0067  02.08.2006

@<TRIPOS>MOLECULE
ASD01208419
  59   62    0    0    0
SMALL
NO_CHARGES


@<TRIPOS>ATOM
   1 N1             0.0741     1.0949    -0.6375 N.am    
   2 C2             0.0369    -0.0773     0.0867 C.2     
   3 C3             1.2256    -0.2095     0.7413 C.2     
   4 C4             2.0181     0.8987     0.4203 C.2     
   5 C5             1.3003     1.6933    -0.4275 C.2     
   6 C6            -0.9141     1.5716    -1.4203 C.2     
   7 O7            -1.9145     0.8983    -1.6198 O.co2   
   8 O8            -0.8098     2.6773    -1.9308 O.co2   
   9 S9             3.3230     3.7141    -0.7363 S.3     
  10 C10            1.7540     2.9624    -1.0139 C.2     
  11 N11            1.0596     3.7136    -1.8249 N.2     
  12 C12            1.6304     4.8165    -2.2505 C.2     
  13 C13            2.8687     5.0444    -1.7994 C.2     
  14 C14           -1.0940    -1.0253     0.1437 C.ar    
  15 C15           -0.8541    -2.4005     0.1744 C.ar    
  16 C16           -1.9174    -3.2857     0.2278 C.ar    
  17 C17           -3.2202    -2.8081     0.2504 C.ar    
  18 C18           -3.4636    -1.4423     0.2196 C.ar    
  19 C19           -2.4058    -0.5491     0.1729 C.ar    
  20 O20           -4.7413    -0.9802     0.2415 O.3     
  21 C21           -5.4134    -1.0183     1.4219 C.ar    
  22 C22           -6.7528    -0.6595     1.4709 C.ar    
  23 C23           -7.4338    -0.6996     2.6721 C.ar    
  24 C24           -6.7817    -1.0963     3.8250 C.ar    
  25 C25           -5.4470    -1.4544     3.7789 C.ar    
  26 C26           -4.7629    -1.4215     2.5793 C.ar    
  27 S27           -7.6530    -1.1452     5.3557 S.o2    
  28 O28           -6.6428    -0.9706     6.3397 O.2     
  29 O29           -8.6939    -0.1909     5.1971 O.2     
  30 C30           -8.3353    -2.8241     5.4348 C.3     
  31 O31           -1.6849    -4.6244     0.2577 O.3     
  32 C32           -0.3285    -5.0507     0.1144 C.3     
  33 C33           -0.2978    -6.4757    -0.4417 C.3     
  34 C34            0.3623    -5.0208     1.4792 C.3     
  35 O35           -0.8769    -7.3709     0.5098 O.3     
  36 C36           -0.8976    -8.7355     0.0862 C.3     
  37 H37            1.5058    -1.0245     1.3922 H       
  38 H38            3.0184     1.0912     0.7792 H       
  39 H39            1.1311     5.4976    -2.9236 H       
  40 H40            3.4843     5.8974    -2.0441 H       
  41 H41            0.1594    -2.7732     0.1561 H       
  42 H42           -4.0472    -3.5015     0.2917 H       
  43 H43           -2.5959     0.5138     0.1538 H       
  44 H44           -7.2625    -0.3488     0.5708 H       
  45 H45           -8.4764    -0.4204     2.7108 H       
  46 H46           -4.9398    -1.7636     4.6809 H       
  47 H47           -3.7214    -1.7052     2.5430 H       
  48 H48           -7.5215    -3.5487     5.4065 H       
  49 H49           -8.8971    -2.9448     6.3610 H       
  50 H50           -8.9972    -2.9877     4.5844 H       
  51 H51            0.1920    -4.3819    -0.5711 H       
  52 H52           -0.8663    -6.5155    -1.3708 H       
  53 H53            0.7343    -6.7683    -0.6345 H       
  54 H54           -0.1582    -5.6896     2.1646 H       
  55 H55            1.3970    -5.3459     1.3699 H       
  56 H56            0.3405    -4.0056     1.8754 H       
  57 H57            0.1221    -9.0750    -0.0957 H       
  58 H58           -1.3521    -9.3503     0.8631 H       
  59 H59           -1.4786    -8.8222    -0.8320 H       
@<TRIPOS>BOND
   1    1    2 1
   2    1    5 1
   3    1    6 am
   4    2    3 2
   5    2   14 1
   6    3    4 1
   7    3   37 1
   8    4    5 2
   9    4   38 1
  10    5   10 1
  11    6    7 ar
  12    6    8 ar
  13    9   10 1
  14    9   13 1
  15   10   11 2
  16   11   12 1
  17   12   13 2
  18   12   39 1
  19   13   40 1
  20   14   15 ar
  21   14   19 ar
  22   15   16 ar
  23   15   41 1
  24   16   17 ar
  25   16   31 1
  26   17   18 ar
  27   17   42 1
  28   18   19 ar
  29   18   20 1
  30   19   43 1
  31   20   21 1
  32   21   22 ar
  33   21   26 ar
  34   22   23 ar
  35   22   44 1
  36   23   24 ar
  37   23   45 1
  38   24   25 ar
  39   24   27 1
  40   25   26 ar
  41   25   46 1
  42   26   47 1
  43   27   28 2
  44   27   29 2
  45   27   30 1
  46   30   48 1
  47   30   49 1
  48   30   50 1
  49   31   32 1
  50   32   33 1
  51   32   34 1
  52   32   51 1
  53   33   35 1
  54   33   52 1
  55   33   53 1
  56   34   54 1
  57   34   55 1
  58   34   56 1
  59   35   36 1
  60   36   57 1
  61   36   58 1
  62   36   59 1

#	End of record

