#	Name: ASD02408103
#	Creating user name:	WinNT
#	Creation time:	15. 06. 2019 20:21

#	Modifying user name:	WinNT
#	Modification time:	15. 06. 2019 20:21

#	Program:	/corina/corina34_cracker 3.40 0067  02.08.2006

@<TRIPOS>MOLECULE
ASD02408103
  46   49    0    0    0
SMALL
NO_CHARGES


@<TRIPOS>ATOM
   1 C1             0.5306     0.6418    -0.2441 C.ar    
   2 C2             0.7995    -0.6900    -0.4957 C.ar    
   3 C3             1.6587     1.6387    -0.1757 C.3     
   4 C4             1.7486     2.3859    -1.4813 C.2     
   5 N5             2.6989     3.3294    -1.6275 N.am    
   6 N6             0.9066     2.0935    -2.4350 N.2     
   7 C7             0.9397     2.7241    -3.6159 C.2     
   8 C8             1.9024     3.7233    -3.8344 C.2     
   9 C9             2.8085     4.0176    -2.7833 C.2     
  10 N10            0.0425     2.3970    -4.6028 N.pl3   
  11 C11            0.4688     2.3204    -6.0068 C.3     
  12 O12            3.6637     4.8754    -2.9194 O.2     
  13 C13           -0.2353    -1.6048    -0.5589 C.ar    
  14 C14           -1.5398    -1.1884    -0.3706 C.ar    
  15 C15           -1.8112     0.1432    -0.1184 C.ar    
  16 C16           -0.7764     1.0611    -0.0605 C.ar    
  17 F17           -1.0404     2.3628     0.1864 F       
  18 C18            0.0744     0.9506    -6.5679 C.3     
  19 C19           -1.4228     0.7251    -6.3484 C.3     
  20 C20           -1.7392     0.7483    -4.8517 C.3     
  21 C21           -1.3607     2.1110    -4.2741 C.3     
  22 O22           -2.1676     1.7526    -7.0141 O.3     
  23 C23           -3.0269     1.1048    -7.9741 C.3     
  24 C24           -3.1271    -0.3436    -7.4337 C.3     
  25 O25           -1.7987    -0.5495    -6.8956 O.3     
  26 C26            1.9706     4.4207    -5.0833 C.1     
  27 N27            2.0247     4.9739    -6.0740 N.1     
  28 H28            1.8184    -1.0164    -0.6433 H       
  29 H29            1.4718     2.3438     0.6343 H       
  30 H30            2.5964     1.1143     0.0082 H       
  31 H31            3.3087     3.5159    -0.8965 H       
  32 H32           -0.0226     3.1058    -6.5812 H       
  33 H33            1.5502     2.4426    -6.0675 H       
  34 H34           -0.0242    -2.6455    -0.7559 H       
  35 H35           -2.3474    -1.9037    -0.4209 H       
  36 H36           -2.8305     0.4684     0.0284 H       
  37 H37            0.2946     0.9175    -7.6349 H       
  38 H38            0.6386     0.1714    -6.0554 H       
  39 H39           -2.8044     0.5718    -4.7024 H       
  40 H40           -1.1668    -0.0298    -4.3468 H       
  41 H41           -1.4882     2.0971    -3.1916 H       
  42 H42           -1.9968     2.8818    -4.7092 H       
  43 H43           -4.0088     1.5777    -7.9929 H       
  44 H44           -2.5739     1.1156    -8.9654 H       
  45 H45           -3.8812    -0.4164    -6.6500 H       
  46 H46           -3.3350    -1.0473    -8.2397 H       
@<TRIPOS>BOND
   1    1    2 ar
   2    1    3 1
   3    1   16 ar
   4    2   13 ar
   5    2   28 1
   6    3    4 1
   7    3   29 1
   8    3   30 1
   9    4    5 1
  10    4    6 2
  11    5    9 am
  12    5   31 1
  13    6    7 1
  14    7    8 2
  15    7   10 1
  16    8    9 1
  17    8   26 1
  18    9   12 2
  19   10   11 1
  20   10   21 1
  21   11   18 1
  22   11   32 1
  23   11   33 1
  24   13   14 ar
  25   13   34 1
  26   14   15 ar
  27   14   35 1
  28   15   16 ar
  29   15   36 1
  30   16   17 1
  31   18   19 1
  32   18   37 1
  33   18   38 1
  34   19   20 1
  35   19   22 1
  36   19   25 1
  37   20   21 1
  38   20   39 1
  39   20   40 1
  40   21   41 1
  41   21   42 1
  42   22   23 1
  43   23   24 1
  44   23   43 1
  45   23   44 1
  46   24   25 1
  47   24   45 1
  48   24   46 1
  49   26   27 3

#	End of record

