#	Name: ASD07301072
#	Creating user name:	WinNT
#	Creation time:	15. 06. 2019 21:10

#	Modifying user name:	WinNT
#	Modification time:	15. 06. 2019 21:10

#	Program:	/corina/corina34_cracker 3.40 0067  02.08.2006

@<TRIPOS>MOLECULE
ASD07301072
  31   31    0    0    0
SMALL
NO_CHARGES


@<TRIPOS>ATOM
   1 C1             1.2970     0.3935    -0.6682 C.3     
   2 C2             0.0071    -0.0049     0.0015 C.2     
   3 C3             0.0342    -0.8357     1.2056 C.2     
   4 C4            -0.1095    -2.2876     1.0960 C.2     
   5 C5            -0.0816    -3.1433     2.3362 C.3     
   6 O6            -1.0542     0.3634    -0.4579 O.2     
   7 O7            -0.2513    -2.8028     0.0063 O.2     
   8 N8             0.1889    -0.2734     2.3949 N.2     
   9 N9             0.4117     0.9940     2.4850 N.pl3   
  10 C10            0.6804     1.5685     3.7280 C.ar    
  11 C11            0.9211     2.9369     3.8263 C.ar    
  12 C12            1.1870     3.5032     5.0583 C.ar    
  13 C13            1.2146     2.7088     6.1959 C.ar    
  14 C14            0.9748     1.3453     6.0982 C.ar    
  15 C15            0.7027     0.7770     4.8700 C.ar    
  16 F16            0.8949     3.7094     2.7183 F       
  17 O17            1.4771     3.2666     7.4071 O.3     
  18 C18            1.4898     2.3904     8.5359 C.3     
  19 F19            0.2378     1.7801     8.6666 F       
  20 F20            2.4702     1.4092     8.3535 F       
  21 H21            1.6129    -0.3977    -1.3480 H       
  22 H22            1.1453     1.3156    -1.2294 H       
  23 H23            2.0657     0.5510     0.0884 H       
  24 H24            0.0527    -2.5090     3.2123 H       
  25 H25           -1.0216    -3.6883     2.4228 H       
  26 H26            0.7443    -3.8516     2.2704 H       
  27 H27            0.3923     1.5477     1.6888 H       
  28 H28            1.3737     4.5641     5.1358 H       
  29 H29            0.9971     0.7288     6.9847 H       
  30 H30            0.5115    -0.2834     4.7959 H       
  31 H31            1.7112     2.9621     9.4372 H       
@<TRIPOS>BOND
   1    1    2 1
   2    1   21 1
   3    1   22 1
   4    1   23 1
   5    2    3 1
   6    2    6 2
   7    3    4 1
   8    3    8 2
   9    4    5 1
  10    4    7 2
  11    5   24 1
  12    5   25 1
  13    5   26 1
  14    8    9 1
  15    9   10 1
  16    9   27 1
  17   10   11 ar
  18   10   15 ar
  19   11   12 ar
  20   11   16 1
  21   12   13 ar
  22   12   28 1
  23   13   14 ar
  24   13   17 1
  25   14   15 ar
  26   14   29 1
  27   15   30 1
  28   17   18 1
  29   18   19 1
  30   18   20 1
  31   18   31 1

#	End of record

