#	Name: ASD08710073
#	Creating user name:	WinNT
#	Creation time:	15. 06. 2019 21:19

#	Modifying user name:	WinNT
#	Modification time:	15. 06. 2019 21:19

#	Program:	/corina/corina34_cracker 3.40 0067  02.08.2006

@<TRIPOS>MOLECULE
ASD08710073
  55   57    0    0    0
SMALL
NO_CHARGES


@<TRIPOS>ATOM
   1 C1             0.0125     2.8435    -1.2208 C.1     
   2 C2             0.0997     4.1429    -0.6254 C.ar    
   3 C3            -0.6534     4.4456     0.5111 C.ar    
   4 C4            -0.5646     5.6992     1.0794 C.ar    
   5 C5             0.2683     6.6558     0.5262 C.ar    
   6 C6             1.0168     6.3628    -0.5998 C.ar    
   7 C7             0.9424     5.1109    -1.1749 C.ar    
   8 N8            -0.0567     1.8127    -1.6932 N.1     
   9 S9             0.3756     8.2547     1.2588 S.o2    
  10 O10            1.3428     8.9760     0.5082 O.2     
  11 O11           -0.9604     8.7035     1.4400 O.2     
  12 N12            1.0123     8.0575     2.7748 N.am    
  13 C13            2.4648     7.9432     2.9670 C.3     
  14 C14            2.9122     9.0140     3.9698 C.3     
  15 N15            2.0348     8.9506     5.1471 N.am    
  16 C16            0.5822     9.0649     4.9549 C.3     
  17 C17            0.1352     7.9998     3.9527 C.3     
  18 C18            2.5529     8.7902     6.3809 C.2     
  19 O19            3.7585     8.7908     6.5388 O.2     
  20 C20            1.8030     7.5132     8.3864 C.ar    
  21 C21            1.6572     8.6137     7.5400 C.ar    
  22 C22            0.6468     9.5498     7.8076 C.ar    
  23 C23           -0.1608     9.3464     8.8940 C.ar    
  24 C24            0.0419     8.2251     9.6962 C.ar    
  25 N25            1.0045     7.3552     9.4211 N.ar    
  26 N26           -0.7728     8.0164    10.7962 N.pl3   
  27 C27           -1.8389     8.9711    11.1097 C.3     
  28 C28            2.8790     6.4949     8.1100 C.3     
  29 C29            4.3586     8.7493     4.3926 C.3     
  30 C30           -1.3768     6.0280     2.3055 C.3     
  31 H31           -1.3041     3.7001     0.9436 H       
  32 H32            1.6643     7.1143    -1.0269 H       
  33 H33            1.5309     4.8819    -2.0510 H       
  34 H34            2.7056     6.9540     3.3563 H       
  35 H35            2.9731     8.0982     2.0153 H       
  36 H36            2.8372     9.9996     3.5104 H       
  37 H37            0.0740     8.9099     5.9066 H       
  38 H38            0.3414    10.0541     4.5656 H       
  39 H39           -0.8946     8.1921     3.6517 H       
  40 H40            0.2064     7.0147     4.4138 H       
  41 H41            0.5096    10.4114     7.1710 H       
  42 H42           -0.9475    10.0486     9.1274 H       
  43 H43           -0.6377     7.2382    11.3592 H       
  44 H44           -2.3698     8.6424    12.0032 H       
  45 H45           -1.4050     9.9553    11.2864 H       
  46 H46           -2.5352     9.0259    10.2729 H       
  47 H47            3.7724     6.7460     8.6819 H       
  48 H48            2.5267     5.5057     8.4022 H       
  49 H49            3.1162     6.4966     7.0462 H       
  50 H50            4.9873     8.6684     3.5058 H       
  51 H51            4.7117     9.5718     5.0145 H       
  52 H52            4.4073     7.8190     4.9585 H       
  53 H53           -0.8026     5.7814     3.1986 H       
  54 H54           -1.6152     7.0916     2.3089 H       
  55 H55           -2.3001     5.4487     2.2958 H       
@<TRIPOS>BOND
   1    1    2 1
   2    1    8 3
   3    2    3 ar
   4    2    7 ar
   5    3    4 ar
   6    3   31 1
   7    4    5 ar
   8    4   30 1
   9    5    6 ar
  10    5    9 1
  11    6    7 ar
  12    6   32 1
  13    7   33 1
  14    9   10 2
  15    9   11 2
  16    9   12 am
  17   12   13 1
  18   12   17 1
  19   13   14 1
  20   13   34 1
  21   13   35 1
  22   14   15 1
  23   14   29 1
  24   14   36 1
  25   15   16 1
  26   15   18 am
  27   16   17 1
  28   16   37 1
  29   16   38 1
  30   17   39 1
  31   17   40 1
  32   18   19 2
  33   18   21 1
  34   20   21 ar
  35   20   25 ar
  36   20   28 1
  37   21   22 ar
  38   22   23 ar
  39   22   41 1
  40   23   24 ar
  41   23   42 1
  42   24   25 ar
  43   24   26 1
  44   26   27 1
  45   26   43 1
  46   27   44 1
  47   27   45 1
  48   27   46 1
  49   28   47 1
  50   28   48 1
  51   28   49 1
  52   29   50 1
  53   29   51 1
  54   29   52 1
  55   30   53 1
  56   30   54 1
  57   30   55 1

#	End of record

