#	Name: ASD03731767
#	Creating user name:	WinNT
#	Creation time:	15. 06. 2019 20:46

#	Modifying user name:	WinNT
#	Modification time:	15. 06. 2019 20:46

#	Program:	/corina/corina34_cracker 3.40 0067  02.08.2006

@<TRIPOS>MOLECULE
ASD03731767
  40   41    0    0    0
SMALL
NO_CHARGES


@<TRIPOS>ATOM
   1 C1             0.3757     1.0884     1.9837 C.2     
   2 C2             0.2922    -0.2845     1.4562 C.ar    
   3 C3             1.3790    -0.8406     0.7650 C.ar    
   4 C4             1.2919    -2.1325     0.2721 C.ar    
   5 C5             0.1318    -2.8718     0.4632 C.ar    
   6 C6            -0.9459    -2.3204     1.1486 C.ar    
   7 C7            -0.8686    -1.0404     1.6475 C.ar    
   8 O8             1.3882     1.7420     1.8204 O.2     
   9 N9            -0.6719     1.6221     2.6426 N.am    
  10 S10           -0.5780     3.1654     3.2356 S.o2    
  11 O11           -1.8297     3.3716     3.8758 O.2     
  12 O12            0.6350     3.1833     3.9755 O.2     
  13 C13           -0.4385     4.2099     1.7591 C.3     
  14 O14            2.5113    -0.1156     0.5794 O.3     
  15 C15            3.5197    -0.2182     1.5866 C.3     
  16 O16            0.0491    -4.1373    -0.0212 O.3     
  17 C17           -1.1396    -4.7870     0.0908 C.ar    
  18 C18           -2.0932    -4.6676    -0.9101 C.ar    
  19 C19           -3.3006    -5.3283    -0.7949 C.ar    
  20 C20           -3.5597    -6.1096     0.3188 C.ar    
  21 C21           -2.6094    -6.2293     1.3184 C.ar    
  22 C22           -1.3982    -5.5745     1.2030 C.ar    
  23 C23           -4.3368    -5.1986    -1.8814 C.3     
  24 F24           -4.7411    -6.7553     0.4301 F       
  25 F25            2.3352    -2.6729    -0.3947 F       
  26 H26           -1.8452    -2.9007     1.2933 H       
  27 H27           -1.7061    -0.6180     2.1829 H       
  28 H28           -1.4810     1.1022     2.7694 H       
  29 H29           -1.3172     4.0686     1.1297 H       
  30 H30           -0.3707     5.2557     2.0589 H       
  31 H31            0.4562     3.9331     1.2014 H       
  32 H32            3.1135     0.1126     2.5425 H       
  33 H33            3.8461    -1.2549     1.6697 H       
  34 H34            4.3688     0.4094     1.3159 H       
  35 H35           -1.8916    -4.0581    -1.7785 H       
  36 H36           -2.8129    -6.8386     2.1865 H       
  37 H37           -0.6550    -5.6721     1.9805 H       
  38 H38           -4.1859    -5.9831    -2.6229 H       
  39 H39           -5.3321    -5.2951    -1.4477 H       
  40 H40           -4.2418    -4.2237    -2.3595 H       
@<TRIPOS>BOND
   1    1    2 1
   2    1    8 2
   3    1    9 am
   4    2    3 ar
   5    2    7 ar
   6    3    4 ar
   7    3   14 1
   8    4    5 ar
   9    4   25 1
  10    5    6 ar
  11    5   16 1
  12    6    7 ar
  13    6   26 1
  14    7   27 1
  15    9   10 am
  16    9   28 1
  17   10   11 2
  18   10   12 2
  19   10   13 1
  20   13   29 1
  21   13   30 1
  22   13   31 1
  23   14   15 1
  24   15   32 1
  25   15   33 1
  26   15   34 1
  27   16   17 1
  28   17   18 ar
  29   17   22 ar
  30   18   19 ar
  31   18   35 1
  32   19   20 ar
  33   19   23 1
  34   20   21 ar
  35   20   24 1
  36   21   22 ar
  37   21   36 1
  38   22   37 1
  39   23   38 1
  40   23   39 1
  41   23   40 1

#	End of record

