#	Name: ASD00960216
#	Creating user name:	WinNT
#	Creation time:	15. 06. 2019 18:53

#	Modifying user name:	WinNT
#	Modification time:	15. 06. 2019 18:53

#	Program:	/corina/corina34_cracker 3.40 0067  02.08.2006

@<TRIPOS>MOLECULE
ASD00960216
  32   34    0    0    0
SMALL
NO_CHARGES


@<TRIPOS>ATOM
   1 C1            -0.0168     1.3885     0.0097 C.2     
   2 C2             0.0021    -0.0041     0.0020 C.2     
   3 N3             1.2750     1.8337    -0.0003 N.pl3   
   4 C4             2.1099     0.7447    -0.0141 C.2     
   5 C5             1.3265    -0.4040    -0.0128 C.2     
   6 N6             1.8453     3.1142     0.0012 N.2     
   7 C7             3.1449     3.2515    -0.0105 C.2     
   8 N8             3.9661     2.2059    -0.0244 N.2     
   9 C9             3.5078     0.9660    -0.0262 C.2     
  10 N10            4.3831    -0.1015    -0.0403 N.pl3   
  11 Cl11           1.9045    -2.0409    -0.0276 Cl      
  12 C12           -1.1772     2.2042     0.0199 C.2     
  13 O13           -2.2809     1.6920     0.0230 O.2     
  14 O14           -1.0571     3.5484     0.0261 O.3     
  15 C15           -2.2675     4.3078     0.0362 C.3     
  16 C16           -1.9379     5.7783     0.0420 C.ar    
  17 C17           -1.7929     6.4588    -1.1525 C.ar    
  18 C18           -1.4905     7.8077    -1.1472 C.ar    
  19 C19           -1.3335     8.4761     0.0525 C.ar    
  20 C20           -1.4793     7.7958     1.2470 C.ar    
  21 C21           -1.7860     6.4479     1.2418 C.ar    
  22 H22           -0.8606    -0.6539     0.0071 H       
  23 H23            3.5653     4.2463    -0.0092 H       
  24 H24            5.3402     0.0561    -0.0489 H       
  25 H25            4.0411    -1.0092    -0.0416 H       
  26 H26           -2.8530     4.0702    -0.8519 H       
  27 H27           -2.8437     4.0611     0.9280 H       
  28 H28           -1.9156     5.9366    -2.0898 H       
  29 H29           -1.3765     8.3392    -2.0804 H       
  30 H30           -1.0965     9.5298     0.0567 H       
  31 H31           -1.3563     8.3180     2.1844 H       
  32 H32           -1.9036     5.9172     2.1750 H       
@<TRIPOS>BOND
   1    1    2 2
   2    1    3 1
   3    1   12 1
   4    2    5 1
   5    2   22 1
   6    3    4 1
   7    3    6 1
   8    4    5 2
   9    4    9 1
  10    5   11 1
  11    6    7 2
  12    7    8 1
  13    7   23 1
  14    8    9 2
  15    9   10 1
  16   10   24 1
  17   10   25 1
  18   12   13 2
  19   12   14 1
  20   14   15 1
  21   15   16 1
  22   15   26 1
  23   15   27 1
  24   16   17 ar
  25   16   21 ar
  26   17   18 ar
  27   17   28 1
  28   18   19 ar
  29   18   29 1
  30   19   20 ar
  31   19   30 1
  32   20   21 ar
  33   20   31 1
  34   21   32 1

#	End of record

