#	Name: ASD08150972
#	Creating user name:	WinNT
#	Creation time:	15. 06. 2019 21:16

#	Modifying user name:	WinNT
#	Modification time:	15. 06. 2019 21:16

#	Program:	/corina/corina34_cracker 3.40 0067  02.08.2006

@<TRIPOS>MOLECULE
ASD08150972
  61   66    0    0    0
SMALL
NO_CHARGES


@<TRIPOS>ATOM
   1 N1            -1.0156     2.0301     0.0828 N.2     
   2 C2            -1.0910     0.7412    -0.0808 C.2     
   3 N3             0.1381     0.2380    -0.3878 N.pl3   
   4 C4             1.0187     1.2898    -0.4126 C.ar    
   5 N5             2.3205     1.4185    -0.6466 N.ar    
   6 C6             2.8978     2.6005    -0.5952 C.ar    
   7 N7             2.2297     3.7039    -0.3132 N.ar    
   8 C8             0.9243     3.6738    -0.0648 C.ar    
   9 C9             0.2630     2.4348    -0.1083 C.ar    
  10 N10            0.2327     4.8355     0.2303 N.pl3   
  11 C11            0.9392     6.1182     0.2717 C.3     
  12 C12            1.1083     6.6535    -1.1517 C.3     
  13 N13            0.6466    10.0532     3.1535 N.ar    
  14 C14           -0.0413    10.9133     3.8646 C.ar    
  15 C15           -1.4268    10.8247     3.9818 C.ar    
  16 C16           -2.1018     9.8221     3.3459 C.ar    
  17 C17           -1.3591     8.9008     2.5833 C.ar    
  18 C18           -1.9861     7.8443     1.9016 C.ar    
  19 C19           -1.2391     6.9690     1.1712 C.ar    
  20 C20            0.1435     7.1040     1.0878 C.ar    
  21 C21            0.7941     8.1271     1.7423 C.ar    
  22 C22            0.0473     9.0497     2.5070 C.ar    
  23 N23            2.1809     8.2503     1.6504 N.3     
  24 C24            2.8132     8.0745     2.9647 C.3     
  25 C25            4.3356     8.0359     2.7942 C.3     
  26 N26            4.7541     9.2389     2.0587 N.am    
  27 C27            4.0682     9.5568     0.7971 C.3     
  28 C28            2.5564     9.5355     1.0461 C.3     
  29 C29            5.7396    10.0292     2.5286 C.2     
  30 C30            6.0808    11.2864     1.8231 C.ar    
  31 C31            6.2832    12.4752     2.5307 C.ar    
  32 C32            6.6002    13.6245     1.8327 C.ar    
  33 N33            6.7118    13.6097     0.5194 N.ar    
  34 C34            6.5293    12.5111    -0.1857 C.ar    
  35 C35            6.2151    11.3158     0.4317 C.ar    
  36 O36            6.3482     9.7105     3.5309 O.2     
  37 Cl37          -3.7093     7.6536     1.9901 Cl      
  38 H38           -1.9942     0.1565     0.0132 H       
  39 H39            0.3511    -0.6931    -0.5574 H       
  40 H40            3.9577     2.6702    -0.7906 H       
  41 H41           -0.7199     4.8006     0.4098 H       
  42 H42            1.9200     5.9783     0.7261 H       
  43 H43            0.1338     6.7096    -1.6368 H       
  44 H44            1.5540     7.6475    -1.1155 H       
  45 H45            1.7574     5.9845    -1.7167 H       
  46 H46            0.4796    11.7110     4.3732 H       
  47 H47           -1.9664    11.5480     4.5752 H       
  48 H48           -3.1755     9.7382     3.4261 H       
  49 H49           -1.7271     6.1591     0.6495 H       
  50 H50            2.5409     8.9068     3.6136 H       
  51 H51            2.4732     7.1394     3.4097 H       
  52 H52            4.8135     8.0210     3.7738 H       
  53 H53            4.6187     7.1460     2.2321 H       
  54 H54            4.3693    10.5474     0.4562 H       
  55 H55            4.3256     8.8131     0.0429 H       
  56 H56            2.0301     9.6600     0.0997 H       
  57 H57            2.2876    10.3475     1.7218 H       
  58 H58            6.1926    12.4948     3.6067 H       
  59 H59            6.7584    14.5476     2.3704 H       
  60 H60            6.6308    12.5449    -1.2604 H       
  61 H61            6.0715    10.4185    -0.1519 H       
@<TRIPOS>BOND
   1    1    2 2
   2    1    9 1
   3    2    3 1
   4    2   38 1
   5    3    4 1
   6    3   39 1
   7    4    5 ar
   8    4    9 ar
   9    5    6 ar
  10    6    7 ar
  11    6   40 1
  12    7    8 ar
  13    8    9 ar
  14    8   10 1
  15   10   11 1
  16   10   41 1
  17   11   12 1
  18   11   20 1
  19   11   42 1
  20   12   43 1
  21   12   44 1
  22   12   45 1
  23   13   14 ar
  24   13   22 ar
  25   14   15 ar
  26   14   46 1
  27   15   16 ar
  28   15   47 1
  29   16   17 ar
  30   16   48 1
  31   17   18 ar
  32   17   22 ar
  33   18   19 ar
  34   18   37 1
  35   19   20 ar
  36   19   49 1
  37   20   21 ar
  38   21   22 ar
  39   21   23 1
  40   23   24 1
  41   23   28 1
  42   24   25 1
  43   24   50 1
  44   24   51 1
  45   25   26 1
  46   25   52 1
  47   25   53 1
  48   26   27 1
  49   26   29 am
  50   27   28 1
  51   27   54 1
  52   27   55 1
  53   28   56 1
  54   28   57 1
  55   29   30 1
  56   29   36 2
  57   30   31 ar
  58   30   35 ar
  59   31   32 ar
  60   31   58 1
  61   32   33 ar
  62   32   59 1
  63   33   34 ar
  64   34   35 ar
  65   34   60 1
  66   35   61 1

#	End of record

