#	Name: ASD06170123
#	Creating user name:	WinNT
#	Creation time:	15. 06. 2019 21:05

#	Modifying user name:	WinNT
#	Modification time:	15. 06. 2019 21:05

#	Program:	/corina/corina34_cracker 3.40 0067  02.08.2006

@<TRIPOS>MOLECULE
ASD06170123
  69   73    0    0    0
SMALL
NO_CHARGES


@<TRIPOS>ATOM
   1 N1             0.3136     1.9975    -0.3508 N.pl3   
   2 N2             0.1050     0.7225     0.1835 N.am    
   3 C3             1.3009     0.1978     0.5223 C.2     
   4 C4             2.3136     1.2082     0.1775 C.2     
   5 C5             1.6292     2.2843    -0.3533 C.2     
   6 C6             3.7653     1.0950     0.3618 C.2     
   7 O7             4.4938     2.0121     0.0316 O.2     
   8 N8             4.2914    -0.0245     0.8968 N.am    
   9 C9            -0.7421     2.8871    -0.8412 C.3     
  10 C10           -1.1297     3.8747     0.2612 C.3     
  11 C11           -2.2322     4.8037    -0.2508 C.3     
  12 C12           -1.1357     0.0962     0.3408 C.ar    
  13 C13           -2.0356     0.0590    -0.7164 C.ar    
  14 C14           -3.2598    -0.5602    -0.5578 C.ar    
  15 C15           -3.5900    -1.1429     0.6521 C.ar    
  16 C16           -2.6963    -1.1076     1.7067 C.ar    
  17 C17           -1.4681    -0.4950     1.5528 C.ar    
  18 O18            1.5023    -0.8959     1.0164 O.2     
  19 C19            2.2505     3.5636    -0.8517 C.3     
  20 C20            5.6756    -0.1890     0.9483 C.ar    
  21 C21            6.5036     0.9257     0.8768 C.ar    
  22 C22            7.8746     0.7513     0.9288 C.ar    
  23 C23            8.3747    -0.5429     1.0517 C.ar    
  24 C24            7.4890    -1.6064     1.1174 C.ar    
  25 N25            6.1861    -1.4037     1.0703 N.ar    
  26 O26            9.7157    -0.7600     1.1060 O.3     
  27 N27           11.5833    -0.3034     4.7550 N.ar    
  28 C28           10.2950    -0.0812     4.6405 C.ar    
  29 C29            9.6318    -0.2245     3.4284 C.ar    
  30 C30           10.3366    -0.6117     2.3022 C.ar    
  31 C31           11.7232    -0.8482     2.4373 C.ar    
  32 C32           12.5042    -1.2429     1.3408 C.ar    
  33 C33           13.8411    -1.4622     1.5078 C.ar    
  34 C34           14.4413    -1.2968     2.7642 C.ar    
  35 C35           13.7044    -0.9139     3.8477 C.ar    
  36 C36           12.3264    -0.6803     3.7076 C.ar    
  37 O37           15.7741    -1.5211     2.9052 O.3     
  38 C38           16.3287    -1.3363     4.2092 C.3     
  39 O39           14.5983    -1.8453     0.4453 O.3     
  40 C40           13.9282    -1.9970    -0.8077 C.3     
  41 H41            3.7075    -0.7159     1.2460 H       
  42 H42           -0.3798     3.4364    -1.7102 H       
  43 H43           -1.6137     2.2960    -1.1224 H       
  44 H44           -1.4919     3.3254     1.1302 H       
  45 H45           -0.2580     4.4657     0.5424 H       
  46 H46           -2.5083     5.5073     0.5345 H       
  47 H47           -1.8699     5.3530    -1.1198 H       
  48 H48           -3.1038     4.2127    -0.5321 H       
  49 H49           -1.7785     0.5142    -1.6614 H       
  50 H50           -3.9602    -0.5891    -1.3794 H       
  51 H51           -4.5481    -1.6262     0.7737 H       
  52 H52           -2.9572    -1.5636     2.6503 H       
  53 H53           -0.7686    -0.4720     2.3753 H       
  54 H54            2.3131     4.2803    -0.0328 H       
  55 H55            3.2512     3.3577    -1.2315 H       
  56 H56            1.6366     3.9782    -1.6513 H       
  57 H57            6.0815     1.9152     0.7814 H       
  58 H58            8.5419     1.5988     0.8750 H       
  59 H59            7.8694    -2.6127     1.2123 H       
  60 H60            9.7348     0.2211     5.5130 H       
  61 H61            8.5704    -0.0349     3.3652 H       
  62 H62           12.0500    -1.3730     0.3697 H       
  63 H63           14.1795    -0.7910     4.8097 H       
  64 H64           16.1695    -0.3065     4.5291 H       
  65 H65           15.8418    -2.0140     4.9104 H       
  66 H66           17.3977    -1.5473     4.1826 H       
  67 H67           13.1501    -2.7546    -0.7143 H       
  68 H68           13.4779    -1.0472    -1.0963 H       
  69 H69           14.6456    -2.3049    -1.5684 H       
@<TRIPOS>BOND
   1    1    2 1
   2    1    5 1
   3    1    9 1
   4    2    3 am
   5    2   12 1
   6    3    4 1
   7    3   18 2
   8    4    5 2
   9    4    6 1
  10    5   19 1
  11    6    7 2
  12    6    8 am
  13    8   20 1
  14    8   41 1
  15    9   10 1
  16    9   42 1
  17    9   43 1
  18   10   11 1
  19   10   44 1
  20   10   45 1
  21   11   46 1
  22   11   47 1
  23   11   48 1
  24   12   13 ar
  25   12   17 ar
  26   13   14 ar
  27   13   49 1
  28   14   15 ar
  29   14   50 1
  30   15   16 ar
  31   15   51 1
  32   16   17 ar
  33   16   52 1
  34   17   53 1
  35   19   54 1
  36   19   55 1
  37   19   56 1
  38   20   21 ar
  39   20   25 ar
  40   21   22 ar
  41   21   57 1
  42   22   23 ar
  43   22   58 1
  44   23   24 ar
  45   23   26 1
  46   24   25 ar
  47   24   59 1
  48   26   30 1
  49   27   28 ar
  50   27   36 ar
  51   28   29 ar
  52   28   60 1
  53   29   30 ar
  54   29   61 1
  55   30   31 ar
  56   31   32 ar
  57   31   36 ar
  58   32   33 ar
  59   32   62 1
  60   33   34 ar
  61   33   39 1
  62   34   35 ar
  63   34   37 1
  64   35   36 ar
  65   35   63 1
  66   37   38 1
  67   38   64 1
  68   38   65 1
  69   38   66 1
  70   39   40 1
  71   40   67 1
  72   40   68 1
  73   40   69 1

#	End of record

