#	Name: ASD01901116
#	Creating user name:	WinNT
#	Creation time:	15. 06. 2019 19:53

#	Modifying user name:	WinNT
#	Modification time:	15. 06. 2019 19:53

#	Program:	/corina/corina34_cracker 3.40 0067  02.08.2006

@<TRIPOS>MOLECULE
ASD01901116
  27   28    0    0    0
SMALL
NO_CHARGES


@<TRIPOS>ATOM
   1 C1             0.1118     1.6079     0.0579 C.ar    
   2 C2             0.1239     0.2127     0.0779 C.ar    
   3 C3             1.3453    -0.4350     0.0640 C.ar    
   4 C4             2.5143     0.3121     0.0308 C.ar    
   5 N5             2.4806     1.6253     0.0124 N.ar    
   6 C6             1.3331     2.2948     0.0246 C.ar    
   7 C7             1.3444     3.7715     0.0025 C.2     
   8 O8             0.2996     4.3861    -0.0931 O.2     
   9 N9             2.5127     4.4378     0.0883 N.am    
  10 C10            2.5328     5.8324    -0.0250 C.ar    
  11 C11            3.6168     7.8405    -0.7640 C.ar    
  12 C12            3.5984     6.4636    -0.6530 C.ar    
  13 C13            1.4843     6.5867     0.4854 C.ar    
  14 C14            1.5063     7.9637     0.3724 C.ar    
  15 C15            2.5737     8.5916    -0.2503 C.ar    
  16 Cl16           0.1963     8.9077     1.0099 Cl      
  17 F17            2.5943     9.9380    -0.3593 F       
  18 N18           -1.0898     2.3038     0.0650 N.pl3   
  19 H19           -0.7988    -0.3478     0.1040 H       
  20 H20            1.3892    -1.5140     0.0792 H       
  21 H21            3.4680    -0.1946     0.0204 H       
  22 H22            3.3397     3.9506     0.2285 H       
  23 H23            4.4456     8.3313    -1.2524 H       
  24 H24            4.4126     5.8783    -1.0541 H       
  25 H25            0.6523     6.0974     0.9699 H       
  26 H26           -1.9295     1.8224     0.0014 H       
  27 H27           -1.0895     3.2714     0.1336 H       
@<TRIPOS>BOND
   1    1    2 ar
   2    1    6 ar
   3    1   18 1
   4    2    3 ar
   5    2   19 1
   6    3    4 ar
   7    3   20 1
   8    4    5 ar
   9    4   21 1
  10    5    6 ar
  11    6    7 1
  12    7    8 2
  13    7    9 am
  14    9   10 1
  15    9   22 1
  16   10   13 ar
  17   10   12 ar
  18   11   12 ar
  19   11   15 ar
  20   11   23 1
  21   12   24 1
  22   13   14 ar
  23   13   25 1
  24   14   15 ar
  25   14   16 1
  26   15   17 1
  27   18   26 1
  28   18   27 1

#	End of record

