#	Name: ASD01917621
#	Creating user name:	WinNT
#	Creation time:	15. 06. 2019 20:09

#	Modifying user name:	WinNT
#	Modification time:	15. 06. 2019 20:09

#	Program:	/corina/corina34_cracker 3.40 0067  02.08.2006

@<TRIPOS>MOLECULE
ASD01917621
  60   64    0    0    0
SMALL
NO_CHARGES


@<TRIPOS>ATOM
   1 C1            -0.0166     1.3751     0.0096 C.ar    
   2 C2             0.0021    -0.0041     0.0020 C.ar    
   3 C3             1.2192    -0.6830    -0.0132 C.ar    
   4 C4             2.4140     0.0345    -0.0208 C.ar    
   5 C5             1.2428    -2.1665    -0.0209 C.2     
   6 N6             0.1656    -2.9776    -0.0150 N.2     
   7 C7             2.3535    -2.9485    -0.0411 C.2     
   8 N8             1.9201    -4.2477    -0.0412 N.pl3   
   9 C9             0.5618    -4.2198    -0.0249 C.2     
  10 C10            2.7284    -5.3941    -0.0587 C.ar    
  11 C11            3.7469    -5.5121    -0.9945 C.ar    
  12 C12            4.5419    -6.6412    -1.0099 C.ar    
  13 C13            3.3115    -7.5371     0.8451 C.ar    
  14 C14            2.5144    -6.4094     0.8635 C.ar    
  15 C15           -0.3397    -5.4274    -0.0189 C.3     
  16 C16           -0.6234    -5.8354     1.4038 C.2     
  17 N17           -1.4131    -6.8982     1.6554 N.am    
  18 O18           -0.1410    -5.2074     2.3224 O.2     
  19 C19           -1.7028    -7.3134     3.0363 C.3     
  20 C20           -2.0131    -7.6698     0.5564 C.3     
  21 C21           -3.5179    -7.7977     0.8163 C.3     
  22 N22           -3.7342    -8.3561     2.1577 N.3     
  23 C23           -3.2204    -7.4561     3.1936 C.3     
  24 C24           -5.0791    -8.6391     2.3687 C.ar    
  25 C25           -5.4993    -9.1785     3.5844 C.ar    
  26 N26           -5.9683    -8.3924     1.4180 N.ar    
  27 N27           -7.2183    -8.6388     1.5736 N.ar    
  28 C28           -7.7013    -9.1526     2.6869 C.ar    
  29 C29           -6.8502    -9.4418     3.7447 C.ar    
  30 C30            4.3236    -7.6554    -0.0926 C.ar    
  31 F31            5.1024    -8.7593    -0.1091 F       
  32 O32            1.1534     3.4458     0.0100 O.3     
  33 C33            2.3888     1.4136    -0.0131 C.ar    
  34 C34            1.1750     2.0869     0.0020 C.ar    
  35 C35           -0.1300     4.0741     0.0256 C.3     
  36 H36           -0.9595     1.9018     0.0169 H       
  37 H37           -0.9254    -0.5573     0.0082 H       
  38 H38            3.3587    -0.4888    -0.0322 H       
  39 H39            3.3793    -2.6111    -0.0548 H       
  40 H40            3.9172    -4.7215    -1.7103 H       
  41 H41            5.3342    -6.7335    -1.7381 H       
  42 H42            3.1455    -8.3270     1.5626 H       
  43 H43            1.7253    -6.3173     1.5951 H       
  44 H44           -1.2763    -5.1842    -0.5207 H       
  45 H45            0.1499    -6.2490    -0.5417 H       
  46 H46           -1.2220    -8.2704     3.2394 H       
  47 H47           -1.3319    -6.5595     3.7308 H       
  48 H48           -1.8474    -7.1515    -0.3880 H       
  49 H49           -1.5628    -8.6616     0.5169 H       
  50 H50           -3.9829    -6.8140     0.7525 H       
  51 H51           -3.9608    -8.4588     0.0713 H       
  52 H52           -3.4427    -7.8693     4.1774 H       
  53 H53           -3.6932    -6.4791     3.0937 H       
  54 H54           -4.7939    -9.3847     4.3758 H       
  55 H55           -8.7602    -9.3447     2.7779 H       
  56 H56           -7.2291    -9.8635     4.6639 H       
  57 H57            3.3143     1.9701    -0.0189 H       
  58 H58           -0.0044     5.1568     0.0306 H       
  59 H59           -0.6905     3.7774    -0.8609 H       
  60 H60           -0.6739     3.7673     0.9189 H       
@<TRIPOS>BOND
   1    1    2 ar
   2    1   34 ar
   3    1   36 1
   4    2    3 ar
   5    2   37 1
   6    3    4 ar
   7    3    5 1
   8    4   33 ar
   9    4   38 1
  10    5    6 1
  11    5    7 2
  12    6    9 2
  13    7    8 1
  14    7   39 1
  15    8    9 1
  16    8   10 1
  17    9   15 1
  18   10   11 ar
  19   10   14 ar
  20   11   12 ar
  21   11   40 1
  22   12   30 ar
  23   12   41 1
  24   13   14 ar
  25   13   30 ar
  26   13   42 1
  27   14   43 1
  28   15   16 1
  29   15   44 1
  30   15   45 1
  31   16   17 am
  32   16   18 2
  33   17   19 1
  34   17   20 1
  35   19   23 1
  36   19   46 1
  37   19   47 1
  38   20   21 1
  39   20   48 1
  40   20   49 1
  41   21   22 1
  42   21   50 1
  43   21   51 1
  44   22   23 1
  45   22   24 1
  46   23   52 1
  47   23   53 1
  48   24   25 ar
  49   24   26 ar
  50   25   29 ar
  51   25   54 1
  52   26   27 ar
  53   27   28 ar
  54   28   29 ar
  55   28   55 1
  56   29   56 1
  57   30   31 1
  58   32   35 1
  59   32   34 1
  60   33   34 ar
  61   33   57 1
  62   35   58 1
  63   35   59 1
  64   35   60 1

#	End of record

