#	Name: ASD01817040
#	Creating user name:	WinNT
#	Creation time:	15. 06. 2019 19:36

#	Modifying user name:	WinNT
#	Modification time:	15. 06. 2019 19:36

#	Program:	/corina/corina34_cracker 3.40 0067  02.08.2006

@<TRIPOS>MOLECULE
ASD01817040
  48   51    0    0    0
SMALL
NO_CHARGES


@<TRIPOS>ATOM
   1 C1            -0.0167     1.3799     0.0096 C.ar    
   2 C2             0.0021    -0.0041     0.0020 C.ar    
   3 C3            -1.1833    -0.7171     0.0090 C.ar    
   4 C4            -2.3953    -0.0407     0.0243 C.ar    
   5 C5            -2.4124     1.3549     0.0324 C.ar    
   6 C6            -1.2184     2.0605     0.0305 C.ar    
   7 N7            -3.7248    -0.4600     0.0343 N.am    
   8 C8            -4.5130     0.6315     0.0479 C.2     
   9 N9            -3.7506     1.7411     0.0471 N.am    
  10 C10            1.2800     2.1476     0.0014 C.3     
  11 O11           -5.7298     0.6172     0.0589 O.2     
  12 C12           -4.2444     3.1203     0.0592 C.3     
  13 C13           -5.1070     3.3658    -1.1819 C.3     
  14 C14           -5.6695     4.7883    -1.1329 C.3     
  15 N15           -6.4728     4.9567     0.0847 N.3     
  16 C16           -5.6548     4.7723     1.2902 C.3     
  17 C17           -5.0919     3.3494     1.3137 C.3     
  18 C18           -7.1417     6.2645     0.0974 C.3     
  19 C19           -8.0657     6.3557     1.3157 C.3     
  20 C20           -8.6976     7.7493     1.3639 C.3     
  21 O21           -7.6662     8.7372     1.4108 O.3     
  22 C22           -6.7998     8.7306     0.2744 C.3     
  23 C23           -6.0916     7.3764     0.1824 C.3     
  24 F24           -1.1613    -2.0679     0.0007 F       
  25 H25            0.9457    -0.5292    -0.0098 H       
  26 H26           -1.2283     3.1404     0.0368 H       
  27 H27           -4.0299    -1.3808     0.0314 H       
  28 H28            1.5829     2.3382    -1.0282 H       
  29 H29            1.1442     3.0958     0.5216 H       
  30 H30            2.0509     1.5641     0.5047 H       
  31 H31           -3.4000     3.8096     0.0580 H       
  32 H32           -4.4981     3.2459    -2.0779 H       
  33 H33           -5.9288     2.6500    -1.2012 H       
  34 H34           -4.8474     5.5039    -1.1275 H       
  35 H35           -6.2958     4.9615    -2.0081 H       
  36 H36           -4.8328     5.4880     1.2843 H       
  37 H37           -6.2705     4.9340     2.1751 H       
  38 H38           -5.9135     2.6334     1.3336 H       
  39 H39           -4.4722     3.2178     2.2006 H       
  40 H40           -7.7275     6.3833    -0.8142 H       
  41 H41           -8.8498     5.6028     1.2354 H       
  42 H42           -7.4881     6.1860     2.2244 H       
  43 H43           -9.3078     7.9028     0.4739 H       
  44 H44           -9.3230     7.8343     2.2526 H       
  45 H45           -7.3851     8.8969    -0.6299 H       
  46 H46           -6.0579     9.5224     0.3783 H       
  47 H47           -5.4741     7.2273     1.0682 H       
  48 H48           -5.4638     7.3534    -0.7084 H       
@<TRIPOS>BOND
   1    1    2 ar
   2    1   10 1
   3    1    6 ar
   4    2    3 ar
   5    2   25 1
   6    3    4 ar
   7    3   24 1
   8    4    5 ar
   9    4    7 1
  10    5    6 ar
  11    5    9 1
  12    6   26 1
  13    7    8 am
  14    7   27 1
  15    8    9 am
  16    8   11 2
  17    9   12 1
  18   10   28 1
  19   10   29 1
  20   10   30 1
  21   12   13 1
  22   12   17 1
  23   12   31 1
  24   13   14 1
  25   13   32 1
  26   13   33 1
  27   14   15 1
  28   14   34 1
  29   14   35 1
  30   15   16 1
  31   15   18 1
  32   16   17 1
  33   16   36 1
  34   16   37 1
  35   17   38 1
  36   17   39 1
  37   18   19 1
  38   18   23 1
  39   18   40 1
  40   19   20 1
  41   19   41 1
  42   19   42 1
  43   20   21 1
  44   20   43 1
  45   20   44 1
  46   21   22 1
  47   22   23 1
  48   22   45 1
  49   22   46 1
  50   23   47 1
  51   23   48 1

#	End of record

