#	Name: ASD03090726
#	Creating user name:	WinNT
#	Creation time:	15. 06. 2019 20:29

#	Modifying user name:	WinNT
#	Modification time:	15. 06. 2019 20:29

#	Program:	/corina/corina34_cracker 3.40 0067  02.08.2006

@<TRIPOS>MOLECULE
ASD03090726
  39   41    0    0    0
SMALL
NO_CHARGES


@<TRIPOS>ATOM
   1 N1            -0.0205     1.3455    -0.0323 N.am    
   2 C2             0.0004    -0.0020    -0.0233 C.2     
   3 O3             1.0624    -0.5937    -0.0446 O.2     
   4 N4            -1.1558    -0.6938     0.0094 N.am    
   5 C5            -1.1402    -2.0925    -0.1042 C.ar    
   6 C6            -2.0847    -2.8575     0.5756 C.ar    
   7 C7            -2.0675    -4.2377     0.4621 C.ar    
   8 C8            -1.1102    -4.8563    -0.3278 C.ar    
   9 C9            -0.1688    -4.0930    -1.0053 C.ar    
  10 C10           -0.1876    -2.7137    -0.8981 C.ar    
  11 O11           -1.0933    -6.2119    -0.4387 O.3     
  12 C12           -2.0906    -6.9346     0.2859 C.3     
  13 O13           -3.0229    -2.2498     1.3505 O.3     
  14 C14           -3.9602    -3.0967     2.0186 C.3     
  15 F15            0.7633    -4.6975    -1.7741 F       
  16 O16            2.4777     3.6837    -0.1082 O.3     
  17 N17            1.3127     3.3614    -0.0782 N.2     
  18 C18            1.1760     2.0614    -0.0662 C.2     
  19 C19            2.4905     1.5242    -0.0939 C.2     
  20 C20            3.2885     2.6158    -0.1203 C.2     
  21 C21            4.7950     2.6293    -0.1564 C.3     
  22 C22            5.4670     3.3067    -1.3524 C.3     
  23 C23            5.4939     3.9786     0.0219 C.3     
  24 H24           -0.8679     1.8175    -0.0194 H       
  25 H25           -1.9988    -0.2249     0.1114 H       
  26 H26           -2.7992    -4.8321     0.9891 H       
  27 H27            0.5422    -2.1209    -1.4294 H       
  28 H28           -3.0800    -6.6256    -0.0512 H       
  29 H29           -1.9643    -8.0030     0.1106 H       
  30 H30           -1.9882    -6.7266     1.3510 H       
  31 H31           -4.6506    -2.4864     2.6008 H       
  32 H32           -4.5183    -3.6737     1.2814 H       
  33 H33           -3.4265    -3.7759     2.6834 H       
  34 H34            2.7846     0.4850    -0.0934 H       
  35 H35            5.2832     1.7499     0.2637 H       
  36 H36            6.3975     2.8732    -1.7190 H       
  37 H37            4.8194     3.7426    -2.1132 H       
  38 H38            4.8640     4.8566     0.1653 H       
  39 H39            6.4420     3.9872     0.5595 H       
@<TRIPOS>BOND
   1    1    2 am
   2    1   18 1
   3    1   24 1
   4    2    3 2
   5    2    4 am
   6    4    5 1
   7    4   25 1
   8    5    6 ar
   9    5   10 ar
  10    6    7 ar
  11    6   13 1
  12    7    8 ar
  13    7   26 1
  14    8    9 ar
  15    8   11 1
  16    9   10 ar
  17    9   15 1
  18   10   27 1
  19   11   12 1
  20   12   28 1
  21   12   29 1
  22   12   30 1
  23   13   14 1
  24   14   31 1
  25   14   32 1
  26   14   33 1
  27   16   17 1
  28   16   20 1
  29   17   18 2
  30   18   19 1
  31   19   20 2
  32   19   34 1
  33   20   21 1
  34   21   22 1
  35   21   23 1
  36   21   35 1
  37   22   23 1
  38   22   36 1
  39   22   37 1
  40   23   38 1
  41   23   39 1

#	End of record

