#	Name: ASD01911119
#	Creating user name:	WinNT
#	Creation time:	15. 06. 2019 19:57

#	Modifying user name:	WinNT
#	Modification time:	15. 06. 2019 19:57

#	Program:	/corina/corina34_cracker 3.40 0067  02.08.2006

@<TRIPOS>MOLECULE
ASD01911119
  44   47    0    0    0
SMALL
NO_CHARGES


@<TRIPOS>ATOM
   1 C1             0.0974     1.0218     0.1636 C.2     
   2 O2             1.1217     1.6744     0.1997 O.2     
   3 C3             1.1795    -2.4628    -0.7611 C.ar    
   4 C4             1.1553    -1.0793    -0.6958 C.ar    
   5 C5             0.1630    -0.4550     0.0637 C.ar    
   6 C6            -0.7668    -1.2622     0.7277 C.ar    
   7 C7            -0.6698    -2.6340     0.6087 C.ar    
   8 N8             0.2821    -3.1859    -0.1183 N.ar    
   9 F9             2.1304    -3.0793    -1.4966 F       
  10 N10           -1.0985     1.6409     0.2200 N.am    
  11 C11           -2.3434     0.8826     0.0359 C.3     
  12 C12           -3.1682     1.5498    -1.0693 C.3     
  13 C13           -3.3767     3.0261    -0.7240 C.3     
  14 C14           -2.0198     3.7292    -0.6428 C.3     
  15 C15           -1.1822     3.0858     0.4728 C.3     
  16 O16           -5.4293     0.7635    -0.2197 O.3     
  17 N17           -6.3918     0.1524    -0.6336 N.2     
  18 C18           -6.2014    -0.1985    -1.8757 C.2     
  19 N19           -4.9850     0.2579    -2.2389 N.2     
  20 C20           -4.5063     0.8655    -1.1809 C.2     
  21 O21           -7.0656    -0.8934    -2.6565 O.3     
  22 C22           -8.2055    -1.3632    -2.0848 C.ar    
  23 C23           -8.5282    -1.0063    -0.7837 C.ar    
  24 C24           -9.6892    -1.4860    -0.2044 C.ar    
  25 C25          -10.5280    -2.3217    -0.9233 C.ar    
  26 C26          -10.2068    -2.6775    -2.2196 C.ar    
  27 C27           -9.0510    -2.1958    -2.8038 C.ar    
  28 F28          -10.0048    -1.1398     1.0628 F       
  29 H29            1.8925    -0.4925    -1.2237 H       
  30 H30           -1.5492    -0.8183     1.3254 H       
  31 H31           -1.3834    -3.2644     1.1185 H       
  32 H32           -2.1080    -0.1420    -0.2519 H       
  33 H33           -2.9117     0.8817     0.9660 H       
  34 H34           -2.6377     1.4694    -2.0180 H       
  35 H35           -3.9842     3.4974    -1.4966 H       
  36 H36           -3.8853     3.1060     0.2367 H       
  37 H37           -1.5001     3.6283    -1.5956 H       
  38 H38           -2.1702     4.7855    -0.4199 H       
  39 H39           -1.6577     3.2609     1.4378 H       
  40 H40           -0.1804     3.5153     0.4734 H       
  41 H41           -7.8736    -0.3550    -0.2236 H       
  42 H42          -11.4341    -2.6961    -0.4701 H       
  43 H43          -10.8623    -3.3292    -2.7782 H       
  44 H44           -8.8036    -2.4708    -3.8184 H       
@<TRIPOS>BOND
   1    1    2 2
   2    1    5 1
   3    1   10 am
   4    3    4 ar
   5    3    8 ar
   6    3    9 1
   7    4    5 ar
   8    4   29 1
   9    5    6 ar
  10    6    7 ar
  11    6   30 1
  12    7    8 ar
  13    7   31 1
  14   10   11 1
  15   10   15 1
  16   11   12 1
  17   11   32 1
  18   11   33 1
  19   12   13 1
  20   12   20 1
  21   12   34 1
  22   13   14 1
  23   13   35 1
  24   13   36 1
  25   14   15 1
  26   14   37 1
  27   14   38 1
  28   15   39 1
  29   15   40 1
  30   16   17 1
  31   16   20 1
  32   17   18 2
  33   18   19 1
  34   18   21 1
  35   19   20 2
  36   21   22 1
  37   22   23 ar
  38   22   27 ar
  39   23   24 ar
  40   23   41 1
  41   24   25 ar
  42   24   28 1
  43   25   26 ar
  44   25   42 1
  45   26   27 ar
  46   26   43 1
  47   27   44 1

#	End of record

