#	Name: ASD03740267
#	Creating user name:	WinNT
#	Creation time:	15. 06. 2019 20:47

#	Modifying user name:	WinNT
#	Modification time:	15. 06. 2019 20:47

#	Program:	/corina/corina34_cracker 3.40 0067  02.08.2006

@<TRIPOS>MOLECULE
ASD03740267
  63   66    0    0    0
SMALL
NO_CHARGES


@<TRIPOS>ATOM
   1 C1             0.1325     1.3366     0.2807 C.ar    
   2 C2             0.1847    -0.0400     0.3009 C.ar    
   3 C3             2.5807     0.0289     0.0760 C.ar    
   4 C4             1.3102     2.0809     0.1541 C.ar    
   5 C5             1.4021    -0.7025     0.1969 C.ar    
   6 C6             2.5301     1.3986     0.0606 C.ar    
   7 C7             1.9633     5.7024    -0.1093 C.2     
   8 C8             0.7145     6.1928     0.2189 C.2     
   9 C9             2.2153     4.2550    -0.2087 C.2     
  10 C10            3.0361     6.6889    -0.3631 C.2     
  11 C11            0.0978     9.4576     1.8928 C.3     
  12 C12           -0.4988     8.1976     1.2145 C.3     
  13 C13            1.5575     9.5402     1.3698 C.3     
  14 C14            0.6267     7.6918     0.3060 C.3     
  15 C15            5.5788    11.1798     1.0025 C.3     
  16 C16            6.7410     9.6752    -0.6186 C.3     
  17 C17            7.3180     9.5783     1.8104 C.3     
  18 C18            0.7797    -2.5638    -2.4084 C.3     
  19 C19            5.1076     8.7261     1.0165 C.3     
  20 C20            3.9759     8.9377     0.0088 C.3     
  21 C21            6.1863     9.7899     0.8027 C.3     
  22 N22            1.2655     3.4395     0.1315 N.2     
  23 N23            3.4550     3.8323    -0.6613 N.am    
  24 N24            2.9430     7.9192     0.2135 N.am    
  25 N25            1.8626     8.1563     0.9899 N.3     
  26 N26            1.4432    -2.1005     0.2140 N.am    
  27 O27            3.9831     6.4066    -1.0728 O.2     
  28 O28            4.4570     2.6084     1.2613 O.2     
  29 O29            4.8043     1.7822    -1.0793 O.2     
  30 O30           -0.9029    -2.4303    -0.3420 O.2     
  31 O31            0.6838    -4.3272    -0.4084 O.2     
  32 O32           -0.3418     5.3916     0.4429 O.3     
  33 S33            4.0031     2.3710    -0.0641 S.o2    
  34 S34            0.3638    -2.9718    -0.6905 S.o2    
  35 H35           -0.8191     1.8416     0.3581 H       
  36 H36           -0.7280    -0.6091     0.3988 H       
  37 H37            3.5298    -0.4802    -0.0048 H       
  38 H38           -0.4608    10.3465     1.5994 H       
  39 H39            0.0894     9.3444     2.9769 H       
  40 H40           -0.7527     7.4460     1.9620 H       
  41 H41           -1.3763     8.4615     0.6241 H       
  42 H42            1.6183    10.1985     0.5032 H       
  43 H43            2.2294     9.8788     2.1584 H       
  44 H44            0.5372     8.1264    -0.6896 H       
  45 H45            4.7725    11.3305     0.2846 H       
  46 H46            5.1836    11.2614     2.0151 H       
  47 H47            6.3473    11.9376     0.8502 H       
  48 H48            7.5095    10.4331    -0.7709 H       
  49 H49            7.1739     8.6851    -0.7609 H       
  50 H50            5.9348     9.8260    -1.3365 H       
  51 H51            6.9228     9.6599     2.8230 H       
  52 H52            7.7509     8.5881     1.6681 H       
  53 H53            8.0865    10.3361     1.6581 H       
  54 H54            1.8100    -2.8555    -2.6120 H       
  55 H55            0.1105    -3.1000    -3.0814 H       
  56 H56            0.6683    -1.4907    -2.5642 H       
  57 H57            4.7124     8.8078     2.0291 H       
  58 H58            5.5405     7.7360     0.8742 H       
  59 H59            3.5431     9.9279     0.1511 H       
  60 H60            4.3711     8.8561    -1.0038 H       
  61 H61            3.9757     4.3560    -1.2901 H       
  62 H62            2.1040    -2.5597     0.7557 H       
  63 H63           -0.2167     4.4458     0.2854 H       
@<TRIPOS>BOND
   1    1    2 ar
   2    1    4 ar
   3    1   35 1
   4    2    5 ar
   5    2   36 1
   6    3    5 ar
   7    3    6 ar
   8    3   37 1
   9    4    6 ar
  10    4   22 1
  11    5   26 1
  12    6   33 1
  13    7    8 2
  14    7    9 1
  15    7   10 1
  16    8   14 1
  17    8   32 1
  18    9   22 2
  19    9   23 1
  20   10   24 am
  21   10   27 2
  22   11   12 1
  23   11   13 1
  24   11   38 1
  25   11   39 1
  26   12   14 1
  27   12   40 1
  28   12   41 1
  29   13   25 1
  30   13   42 1
  31   13   43 1
  32   14   25 1
  33   14   44 1
  34   15   21 1
  35   15   45 1
  36   15   46 1
  37   15   47 1
  38   16   21 1
  39   16   48 1
  40   16   49 1
  41   16   50 1
  42   17   21 1
  43   17   51 1
  44   17   52 1
  45   17   53 1
  46   18   34 1
  47   18   54 1
  48   18   55 1
  49   18   56 1
  50   19   20 1
  51   19   21 1
  52   19   57 1
  53   19   58 1
  54   20   24 1
  55   20   59 1
  56   20   60 1
  57   23   33 am
  58   23   61 1
  59   24   25 1
  60   26   34 am
  61   26   62 1
  62   28   33 2
  63   29   33 2
  64   30   34 2
  65   31   34 2
  66   32   63 1

#	End of record

