#	Name: ASD01230930
#	Creating user name:	WinNT
#	Creation time:	15. 06. 2019 19:15

#	Modifying user name:	WinNT
#	Modification time:	15. 06. 2019 19:15

#	Program:	/corina/corina34_cracker 3.40 0067  02.08.2006

@<TRIPOS>MOLECULE
ASD01230930
  44   47    0    0    0
SMALL
NO_CHARGES


@<TRIPOS>ATOM
   1 S1             0.3906     0.6085    -1.9623 S.o2    
   2 N2             0.3024    -0.8519    -1.1666 N.am    
   3 C3             1.1811    -1.7405    -1.4860 C.2     
   4 N4             2.1796    -1.4606    -2.3821 N.pl3   
   5 C5             2.9773    -0.2507    -2.3169 C.3     
   6 C6             2.1645     0.9881    -1.9597 C.3     
   7 C7             1.1205    -3.1338    -0.9030 C.3     
   8 N8             1.2788    -4.0985    -2.0050 N.3     
   9 C9             2.5134    -3.8436    -2.7592 C.3     
  10 C10            2.4385    -2.4667    -3.4287 C.3     
  11 C11            4.0552    -0.4374    -1.2804 C.ar    
  12 C12            5.3303     0.0425    -1.5166 C.ar    
  13 C13            6.3202    -0.1274    -0.5682 C.ar    
  14 C14            6.0339    -0.7798     0.6225 C.ar    
  15 C15            4.7534    -1.2600     0.8572 C.ar    
  16 C16            3.7660    -1.0833    -0.0925 C.ar    
  17 O17            7.0060    -0.9485     1.5569 O.3     
  18 C18            8.2144    -0.3692     1.3321 C.ar    
  19 C19            8.4534     0.9288     1.7603 C.ar    
  20 C20            9.6829     1.5152     1.5309 C.ar    
  21 C21           10.6749     0.8100     0.8748 C.ar    
  22 C22           10.4394    -0.4836     0.4470 C.ar    
  23 C23            9.2136    -1.0767     0.6789 C.ar    
  24 O24           -0.0584     0.3211    -3.2795 O.2     
  25 O25           -0.3163     1.5115    -1.1232 O.2     
  26 H26            3.4508    -0.0912    -3.2856 H       
  27 H27            2.3654     1.7726    -2.6893 H       
  28 H28            2.4562     1.3362    -0.9688 H       
  29 H29            1.9255    -3.2656    -0.1800 H       
  30 H30            0.1580    -3.2871    -0.4150 H       
  31 H31            1.2540    -5.0469    -1.6616 H       
  32 H32            3.3652    -3.8702    -2.0796 H       
  33 H33            2.6365    -4.6116    -3.5229 H       
  34 H34            1.6285    -2.4558    -4.1580 H       
  35 H35            3.3839    -2.2468    -3.9246 H       
  36 H36            5.5526     0.5502    -2.4435 H       
  37 H37            7.3161     0.2471    -0.7534 H       
  38 H38            4.5281    -1.7682     1.7831 H       
  39 H39            2.7681    -1.4533     0.0914 H       
  40 H40            7.6786     1.4803     2.2723 H       
  41 H41            9.8694     2.5255     1.8641 H       
  42 H42           11.6352     1.2706     0.6958 H       
  43 H43           11.2158    -1.0321    -0.0656 H       
  44 H44            9.0315    -2.0885     0.3482 H       
@<TRIPOS>BOND
   1    1    2 am
   2    1    6 1
   3    1   24 2
   4    1   25 2
   5    2    3 2
   6    3    4 1
   7    3    7 1
   8    4    5 1
   9    4   10 1
  10    5    6 1
  11    5   11 1
  12    5   26 1
  13    6   27 1
  14    6   28 1
  15    7    8 1
  16    7   29 1
  17    7   30 1
  18    8    9 1
  19    8   31 1
  20    9   10 1
  21    9   32 1
  22    9   33 1
  23   10   34 1
  24   10   35 1
  25   11   12 ar
  26   11   16 ar
  27   12   13 ar
  28   12   36 1
  29   13   14 ar
  30   13   37 1
  31   14   15 ar
  32   14   17 1
  33   15   16 ar
  34   15   38 1
  35   16   39 1
  36   17   18 1
  37   18   19 ar
  38   18   23 ar
  39   19   20 ar
  40   19   40 1
  41   20   21 ar
  42   20   41 1
  43   21   22 ar
  44   21   42 1
  45   22   23 ar
  46   22   43 1
  47   23   44 1

#	End of record

