#	Name: ASD00061006
#	Creating user name:	WinNT
#	Creation time:	15. 06. 2019 18:29

#	Modifying user name:	WinNT
#	Modification time:	15. 06. 2019 18:29

#	Program:	/corina/corina34_cracker 3.40 0067  02.08.2006

@<TRIPOS>MOLECULE
ASD00061006
  40   42    0    0    0
SMALL
NO_CHARGES


@<TRIPOS>ATOM
   1 C1            -0.0056     1.4059     0.0259 C.ar    
   2 C2             0.0245     0.0191     0.0180 C.ar    
   3 N3            -1.1813    -0.6952     0.0420 N.am    
   4 C4            -2.1118    -0.3643     0.9562 C.2     
   5 C5            -1.8125     0.6806     1.9944 C.3     
   6 C6            -1.9657     2.0829     1.4050 C.3     
   7 C7            -1.3272     2.1257     0.0152 C.3     
   8 C8             1.1772     2.1194     0.0255 C.ar    
   9 C9             2.3873     1.4503     0.0067 C.ar    
  10 C10            2.4187     0.0678    -0.0120 C.ar    
  11 C11            1.2387    -0.6513    -0.0058 C.ar    
  12 O12           -3.1948    -0.9103     0.9422 O.2     
  13 O13           -2.7169     0.5288     3.0903 O.3     
  14 C14           -2.3796    -0.3746     4.0480 C.ar    
  15 C15           -1.2630    -1.1807     3.8803 C.ar    
  16 C16           -0.9222    -2.0983     4.8551 C.ar    
  17 C17           -1.6930    -2.2136     5.9972 C.ar    
  18 C18           -2.8065    -1.4117     6.1665 C.ar    
  19 C19           -3.1480    -0.4883     5.1974 C.ar    
  20 C20           -1.4243    -1.7813    -0.9107 C.3     
  21 C21           -0.9396    -3.0820    -0.3239 C.2     
  22 O22           -0.4423    -3.0999     0.7771 O.2     
  23 O23           -1.0605    -4.2206    -1.0244 O.3     
  24 H24           -0.7909     0.5504     2.3514 H       
  25 H25           -3.0243     2.3301     1.3261 H       
  26 H26           -1.4713     2.8057     2.0540 H       
  27 H27           -1.1704     3.1638    -0.2781 H       
  28 H28           -1.9929     1.6469    -0.7028 H       
  29 H29            1.1569     3.1991     0.0396 H       
  30 H30            3.3113     2.0095     0.0062 H       
  31 H31            3.3662    -0.4502    -0.0310 H       
  32 H32            1.2617    -1.7310    -0.0202 H       
  33 H33           -0.6608    -1.0912     2.9882 H       
  34 H34           -0.0533    -2.7262     4.7249 H       
  35 H35           -1.4249    -2.9316     6.7582 H       
  36 H36           -3.4074    -1.5042     7.0592 H       
  37 H37           -4.0179     0.1378     5.3301 H       
  38 H38           -2.4923    -1.8514    -1.1170 H       
  39 H39           -0.8877    -1.5785    -1.8375 H       
  40 H40           -0.7352    -5.0297    -0.6065 H       
@<TRIPOS>BOND
   1    1    2 ar
   2    1    8 ar
   3    1    7 1
   4    2    3 1
   5    2   11 ar
   6    3    4 am
   7    3   20 1
   8    4    5 1
   9    4   12 2
  10    5    6 1
  11    5   13 1
  12    5   24 1
  13    6    7 1
  14    6   25 1
  15    6   26 1
  16    7   27 1
  17    7   28 1
  18    8    9 ar
  19    8   29 1
  20    9   10 ar
  21    9   30 1
  22   10   11 ar
  23   10   31 1
  24   11   32 1
  25   13   14 1
  26   14   15 ar
  27   14   19 ar
  28   15   16 ar
  29   15   33 1
  30   16   17 ar
  31   16   34 1
  32   17   18 ar
  33   17   35 1
  34   18   19 ar
  35   18   36 1
  36   19   37 1
  37   20   21 1
  38   20   38 1
  39   20   39 1
  40   21   22 2
  41   21   23 1
  42   23   40 1

#	End of record

