#	Name: ASD02401022
#	Creating user name:	WinNT
#	Creation time:	15. 06. 2019 20:20

#	Modifying user name:	WinNT
#	Modification time:	15. 06. 2019 20:20

#	Program:	/corina/corina34_cracker 3.40 0067  02.08.2006

@<TRIPOS>MOLECULE
ASD02401022
  46   47    0    0    0
SMALL
NO_CHARGES


@<TRIPOS>ATOM
   1 C1            -0.0168     1.3891     0.0097 C.ar    
   2 C2             0.0021    -0.0041     0.0020 C.ar    
   3 C3            -1.1896    -0.7094     0.0101 C.ar    
   4 C4            -2.3949    -0.0313     0.0257 C.ar    
   5 C5            -2.4146     1.3509     0.0333 C.ar    
   6 C6            -1.2293     2.0624     0.0307 C.ar    
   7 C7            -3.7679     2.0914    -2.4291 C.ar    
   8 C8            -3.4190     3.4118    -2.6426 C.ar    
   9 C9            -2.7100     3.7692    -3.7750 C.ar    
  10 C10           -2.3474     2.8035    -4.6990 C.ar    
  11 C11           -2.6987     1.4723    -4.4846 C.ar    
  12 C12           -3.4052     1.1205    -3.3440 C.ar    
  13 N13           -2.3349     0.4920    -5.4150 N.pl3   
  14 O14           -1.6506     3.1537    -5.8132 O.3     
  15 N15            1.1845     2.1073     0.0021 N.pl3   
  16 O16            1.1881    -0.6697    -0.0138 O.3     
  17 C17           -3.7313     2.0838     0.0504 C.3     
  18 C18           -4.5401     1.7083    -1.1929 C.3     
  19 C19           -3.7649     2.1818     2.5467 C.3     
  20 C20           -4.5152     1.6949     1.3054 C.3     
  21 C21           -6.7366     1.9839    -2.3513 C.3     
  22 C22           -5.8768     2.4524    -1.1756 C.3     
  23 H23           -1.1778    -1.7893     0.0038 H       
  24 H24           -3.3233    -0.5831     0.0316 H       
  25 H25           -1.2475     3.1423     0.0367 H       
  26 H26           -3.7012     4.1664    -1.9233 H       
  27 H27           -2.4394     4.8018    -3.9389 H       
  28 H28           -3.6787     0.0895    -3.1745 H       
  29 H29           -1.8376     0.7390    -6.2103 H       
  30 H30           -2.5801    -0.4343    -5.2644 H       
  31 H31           -0.6904     3.1250    -5.7019 H       
  32 H32            2.0318     1.6351    -0.0086 H       
  33 H33            1.1699     3.0771     0.0074 H       
  34 H34            1.5402    -0.8669     0.8650 H       
  35 H35           -3.5489     3.1584     0.0543 H       
  36 H36           -4.7225     0.6337    -1.1969 H       
  37 H37           -2.7773     1.7216     2.5781 H       
  38 H38           -3.6594     3.2659     2.5055 H       
  39 H39           -4.3234     1.9048     3.4408 H       
  40 H40           -5.5028     2.1551     1.2740 H       
  41 H41           -4.6207     0.6108     1.3465 H       
  42 H42           -6.2172     2.1917    -3.2868 H       
  43 H43           -6.9162     0.9122    -2.2657 H       
  44 H44           -7.6889     2.5140    -2.3390 H       
  45 H45           -6.3962     2.2447    -0.2401 H       
  46 H46           -5.6972     3.5241    -1.2612 H       
@<TRIPOS>BOND
   1    1    2 ar
   2    1   15 1
   3    1    6 ar
   4    2    3 ar
   5    2   16 1
   6    3    4 ar
   7    3   23 1
   8    4    5 ar
   9    4   24 1
  10    5    6 ar
  11    5   17 1
  12    6   25 1
  13    7    8 ar
  14    7   18 1
  15    7   12 ar
  16    8    9 ar
  17    8   26 1
  18    9   10 ar
  19    9   27 1
  20   10   11 ar
  21   10   14 1
  22   11   12 ar
  23   11   13 1
  24   12   28 1
  25   13   29 1
  26   13   30 1
  27   14   31 1
  28   15   32 1
  29   15   33 1
  30   16   34 1
  31   17   18 1
  32   17   20 1
  33   17   35 1
  34   18   22 1
  35   18   36 1
  36   19   20 1
  37   19   37 1
  38   19   38 1
  39   19   39 1
  40   20   40 1
  41   20   41 1
  42   21   22 1
  43   21   42 1
  44   21   43 1
  45   21   44 1
  46   22   45 1
  47   22   46 1

#	End of record

