#	Name: ASD01510063
#	Creating user name:	WinNT
#	Creation time:	15. 06. 2019 19:21

#	Modifying user name:	WinNT
#	Modification time:	15. 06. 2019 19:21

#	Program:	/corina/corina34_cracker 3.40 0067  02.08.2006

@<TRIPOS>MOLECULE
ASD01510063
  54   56    0    0    0
SMALL
NO_CHARGES


@<TRIPOS>ATOM
   1 C1             2.2136    -2.4042     1.1132 C.2     
   2 C2             1.1250    -1.8828     0.5542 C.2     
   3 C3            -0.1401    -2.6325     0.5690 C.2     
   4 O4            -0.1909    -3.7293     1.0922 O.2     
   5 N5            -1.2431    -2.1043     0.0026 N.am    
   6 C6            -2.4159    -2.8609    -0.0828 C.ar    
   7 C7            -3.6536    -2.2417     0.0416 C.ar    
   8 C8            -4.8136    -2.9883    -0.0431 C.ar    
   9 C9            -4.7473    -4.3519    -0.2516 C.ar    
  10 C10           -3.5119    -4.9783    -0.3766 C.ar    
  11 C11           -2.3450    -4.2299    -0.2976 C.ar    
  12 S12           -3.4278    -6.7182    -0.6414 S.3     
  13 C13           -5.1233    -7.1969    -0.6721 C.ar    
  14 C14           -5.8402    -7.2122    -1.8686 C.ar    
  15 O15           -5.2419    -6.8581    -3.0333 O.3     
  16 C16           -6.0453    -6.9004    -4.2144 C.3     
  17 N17           -7.1172    -7.5791    -1.8515 N.ar    
  18 C18           -7.7087    -7.9267    -0.7189 C.ar    
  19 N19           -7.0610    -7.9246     0.4362 N.ar    
  20 C20           -5.7804    -7.5755     0.4986 C.ar    
  21 O21           -5.1245    -7.5765     1.6858 O.3     
  22 C22           -5.8722    -7.9656     2.8398 C.3     
  23 N23           -9.0429    -8.3029    -0.7430 N.3     
  24 C24           -9.5164    -8.6508     0.6040 C.3     
  25 C25          -11.0094    -8.9826     0.5472 C.3     
  26 N26          -11.2261   -10.0954    -0.3878 N.3     
  27 C27          -10.7526    -9.7474    -1.7348 C.3     
  28 C28           -9.2596    -9.4157    -1.6780 C.3     
  29 C29          -12.6398   -10.4939    -0.4133 C.3     
  30 H30            3.1427    -1.8536     1.1024 H       
  31 H31            2.1674    -3.3761     1.5817 H       
  32 H32            1.1702    -0.9089     0.0896 H       
  33 H33           -1.2234    -1.1992    -0.3457 H       
  34 H34           -3.7093    -1.1756     0.2050 H       
  35 H35           -5.7741    -2.5043     0.0543 H       
  36 H36           -5.6557    -4.9324    -0.3173 H       
  37 H37           -1.3842    -4.7135    -0.3942 H       
  38 H38           -6.8921    -6.2233    -4.1023 H       
  39 H39           -5.4465    -6.5945    -5.0722 H       
  40 H40           -6.4101    -7.9158    -4.3694 H       
  41 H41           -5.2305    -7.9228     3.7199 H       
  42 H42           -6.7156    -7.2879     2.9718 H       
  43 H43           -6.2406    -8.9829     2.7079 H       
  44 H44           -8.9652    -9.5167     0.9708 H       
  45 H45           -9.3567    -7.8068     1.2750 H       
  46 H46          -11.3563    -9.2690     1.5400 H       
  47 H47          -11.5635    -8.1080     0.2063 H       
  48 H48          -10.9123   -10.5915    -2.4058 H       
  49 H49          -11.3038    -8.8816    -2.1016 H       
  50 H50           -8.9127    -9.1292    -2.6708 H       
  51 H51           -8.7055   -10.2902    -1.3371 H       
  52 H52          -13.2501    -9.6480    -0.7294 H       
  53 H53          -12.7721   -11.3190    -1.1132 H       
  54 H54          -12.9460   -10.8105     0.5837 H       
@<TRIPOS>BOND
   1    1    2 2
   2    1   30 1
   3    1   31 1
   4    2    3 1
   5    2   32 1
   6    3    4 2
   7    3    5 am
   8    5    6 1
   9    5   33 1
  10    6    7 ar
  11    6   11 ar
  12    7    8 ar
  13    7   34 1
  14    8    9 ar
  15    8   35 1
  16    9   10 ar
  17    9   36 1
  18   10   11 ar
  19   10   12 1
  20   11   37 1
  21   12   13 1
  22   13   14 ar
  23   13   20 ar
  24   14   15 1
  25   14   17 ar
  26   15   16 1
  27   16   38 1
  28   16   39 1
  29   16   40 1
  30   17   18 ar
  31   18   19 ar
  32   18   23 1
  33   19   20 ar
  34   20   21 1
  35   21   22 1
  36   22   41 1
  37   22   42 1
  38   22   43 1
  39   23   24 1
  40   23   28 1
  41   24   25 1
  42   24   44 1
  43   24   45 1
  44   25   26 1
  45   25   46 1
  46   25   47 1
  47   26   27 1
  48   26   29 1
  49   27   28 1
  50   27   48 1
  51   27   49 1
  52   28   50 1
  53   28   51 1
  54   29   52 1
  55   29   53 1
  56   29   54 1

#	End of record

