#	Name: ASD01914521
#	Creating user name:	WinNT
#	Creation time:	15. 06. 2019 20:03

#	Modifying user name:	WinNT
#	Modification time:	15. 06. 2019 20:03

#	Program:	/corina/corina34_cracker 3.40 0067  02.08.2006

@<TRIPOS>MOLECULE
ASD01914521
  60   65    0    0    0
SMALL
NO_CHARGES


@<TRIPOS>ATOM
   1 C1            -0.0168     1.3880     0.0097 C.ar    
   2 C2             0.0021    -0.0041     0.0020 C.ar    
   3 C3             1.2221    -0.6640    -0.0132 C.ar    
   4 C4             2.3824     0.0905    -0.0203 C.ar    
   5 C5             2.2918     1.4801    -0.0120 C.ar    
   6 N6             1.1163     2.0798     0.0026 N.ar    
   7 C7            -1.3138     2.1042     0.0197 C.2     
   8 O8            -2.3544     1.4767     0.0212 O.2     
   9 N9            -1.3394     3.4517     0.0271 N.am    
  10 C10           -2.6218     4.1599     0.0371 C.3     
  11 C11           -2.3709     5.6692     0.0441 C.3     
  12 C12           -3.7103     6.4088     0.0544 C.3     
  13 C13           -4.4995     6.0172     1.3053 C.3     
  14 C14           -4.7504     4.5079     1.2983 C.3     
  15 C15           -5.5514     4.1299     0.0507 C.3     
  16 C16           -4.7622     4.5215    -1.2001 C.3     
  17 C17           -3.4229     3.7819    -1.2105 C.3     
  18 C18           -4.5113     6.0308    -1.1931 C.3     
  19 C19           -3.4110     3.7683     1.2879 C.3     
  20 N20           -3.4700     7.8540     0.0611 N.am    
  21 C21           -4.5109     8.7101     0.0707 C.2     
  22 C22           -4.2684    10.1686     0.0775 C.ar    
  23 C23           -5.3443    11.0577     0.0874 C.ar    
  24 C24           -5.1104    12.4194     0.0942 C.ar    
  25 C25           -3.8109    12.9013     0.0912 C.ar    
  26 C26           -2.7421    12.0238     0.0813 C.ar    
  27 C27           -2.9629    10.6617     0.0798 C.ar    
  28 O28           -5.6490     8.2832     0.0738 O.2     
  29 F29           -6.1499    13.2823     0.1034 F       
  30 C30            4.7324     1.7844    -0.1295 C.2     
  31 N31            5.5497     2.8010    -0.0966 N.2     
  32 C32            4.8446     3.9348     0.0337 C.2     
  33 C33            3.5381     3.6145     0.0842 C.2     
  34 N34            3.4597     2.2488    -0.0190 N.pl3   
  35 H35           -0.9218    -0.5633     0.0082 H       
  36 H36            1.2656    -1.7431    -0.0191 H       
  37 H37            3.3478    -0.3934    -0.0318 H       
  38 H38           -0.5088     3.9527     0.0259 H       
  39 H39           -1.8003     5.9385     0.9328 H       
  40 H40           -1.8087     5.9482    -0.8471 H       
  41 H41           -3.9288     6.2865     2.1941 H       
  42 H42           -5.4536     6.5441     1.3127 H       
  43 H43           -5.3126     4.2289     2.1894 H       
  44 H44           -5.7301     3.0546     0.0457 H       
  45 H45           -6.5055     4.6568     0.0581 H       
  46 H46           -5.3328     4.2522    -2.0889 H       
  47 H47           -2.8606     4.0609    -2.1016 H       
  48 H48           -3.6016     2.7067    -1.2155 H       
  49 H49           -5.4654     6.5577    -1.1857 H       
  50 H50           -3.9490     6.3098    -2.0843 H       
  51 H51           -3.5898     2.6931     1.2829 H       
  52 H52           -2.8404     4.0376     2.1767 H       
  53 H53           -2.5618     8.1946     0.0587 H       
  54 H54           -6.3569    10.6822     0.0894 H       
  55 H55           -3.6324    13.9665     0.0961 H       
  56 H56           -1.7318    12.4057     0.0786 H       
  57 H57           -2.1267     9.9783     0.0764 H       
  58 H58            5.0188     0.7481    -0.2318 H       
  59 H59            5.2545     4.9324     0.0892 H       
  60 H60            2.7105     4.3009     0.1863 H       
@<TRIPOS>BOND
   1    1    2 ar
   2    1    6 ar
   3    1    7 1
   4    2    3 ar
   5    2   35 1
   6    3    4 ar
   7    3   36 1
   8    4    5 ar
   9    4   37 1
  10    5    6 ar
  11    5   34 1
  12    7    8 2
  13    7    9 am
  14    9   10 1
  15    9   38 1
  16   10   11 1
  17   10   17 1
  18   10   19 1
  19   11   12 1
  20   11   39 1
  21   11   40 1
  22   12   13 1
  23   12   18 1
  24   12   20 1
  25   13   14 1
  26   13   41 1
  27   13   42 1
  28   14   15 1
  29   14   19 1
  30   14   43 1
  31   15   16 1
  32   15   44 1
  33   15   45 1
  34   16   17 1
  35   16   18 1
  36   16   46 1
  37   17   47 1
  38   17   48 1
  39   18   49 1
  40   18   50 1
  41   19   51 1
  42   19   52 1
  43   20   21 am
  44   20   53 1
  45   21   22 1
  46   21   28 2
  47   22   23 ar
  48   22   27 ar
  49   23   24 ar
  50   23   54 1
  51   24   25 ar
  52   24   29 1
  53   25   26 ar
  54   25   55 1
  55   26   27 ar
  56   26   56 1
  57   27   57 1
  58   30   31 2
  59   30   34 1
  60   30   58 1
  61   31   32 1
  62   32   33 2
  63   32   59 1
  64   33   34 1
  65   33   60 1

#	End of record

