#	Name: ASD01810892
#	Creating user name:	WinNT
#	Creation time:	15. 06. 2019 19:25

#	Modifying user name:	WinNT
#	Modification time:	15. 06. 2019 19:25

#	Program:	/corina/corina34_cracker 3.40 0067  02.08.2006

@<TRIPOS>MOLECULE
ASD01810892
  54   58    0    0    0
SMALL
NO_CHARGES


@<TRIPOS>ATOM
   1 C1            -0.0163     1.3503     0.0095 C.ar    
   2 C2             0.0021    -0.0041     0.0020 C.ar    
   3 C3             1.2131    -0.7153    -0.0130 C.ar    
   4 C4             2.4403    -0.0265    -0.0211 C.ar    
   5 C5             2.4296     1.4349    -0.0140 C.ar    
   6 N6             3.5586     2.1387    -0.0207 N.ar    
   7 C7             3.5458     3.4516    -0.0139 C.ar    
   8 C8             2.3532     4.1681     0.0010 C.ar    
   9 C9             1.1583     3.5034     0.0084 C.ar    
  10 C10            1.1789     2.0975     0.0021 C.ar    
  11 C11           -1.3393     2.0718     0.0196 C.3     
  12 C12           -1.7277     2.4287    -1.3921 C.ar    
  13 C13           -2.4806     1.5471    -2.1564 C.ar    
  14 C14           -2.8163     1.9131    -3.4473 C.ar    
  15 C15           -2.3907     3.1454    -3.9336 C.ar    
  16 N16           -1.6731     3.9589    -3.1729 N.ar    
  17 C17           -1.3433     3.6380    -1.9364 C.ar    
  18 S18           -2.8092     3.6280    -5.5758 S.3     
  19 C19           -2.0440     5.2657    -5.7273 C.3     
  20 C20            1.2424    -2.1816    -0.0201 C.2     
  21 N21            2.4369    -2.8085    -0.0341 N.am    
  22 C22            3.6083    -2.1118    -0.0413 C.2     
  23 C23            3.6433    -0.7662    -0.0352 C.2     
  24 O24            0.2061    -2.8224    -0.0131 O.2     
  25 C25            2.4759    -4.2730    -0.0414 C.3     
  26 C26            3.2225    -4.7718     1.1996 C.3     
  27 C27            3.3269    -6.2982     1.1435 C.3     
  28 O28            3.9913    -6.6849    -0.0611 O.3     
  29 C29            3.3139    -6.2866    -1.2547 C.3     
  30 C30            3.2091    -4.7599    -1.2950 C.3     
  31 O31            2.5075    -4.3849     2.3748 O.3     
  32 H32           -0.9315    -0.5470     0.0081 H       
  33 H33            4.4831     3.9880    -0.0196 H       
  34 H34            2.3713     5.2479     0.0070 H       
  35 H35            0.2233     4.0439     0.0203 H       
  36 H36           -2.1022     1.4257     0.4540 H       
  37 H37           -1.2525     2.9816     0.6136 H       
  38 H38           -2.7966     0.5968    -1.7521 H       
  39 H39           -3.4006     1.2513    -4.0694 H       
  40 H40           -0.7615     4.3284    -1.3437 H       
  41 H41           -2.4631     5.9336    -4.9747 H       
  42 H42           -0.9678     5.1792    -5.5775 H       
  43 H43           -2.2413     5.6684    -6.7208 H       
  44 H44            4.5400    -2.6579    -0.0521 H       
  45 H45            4.5928    -0.2514    -0.0416 H       
  46 H46            1.4587    -4.6648    -0.0370 H       
  47 H47            4.2226    -4.3389     1.2215 H       
  48 H48            3.8946    -6.6555     2.0026 H       
  49 H49            2.3270    -6.7318     1.1625 H       
  50 H50            3.8724    -6.6357    -2.1233 H       
  51 H51            2.3139    -6.7201    -1.2671 H       
  52 H52            2.6541    -4.4562    -2.1826 H       
  53 H53            4.2089    -4.3267    -1.3235 H       
  54 H54            2.9244    -4.6685     3.2000 H       
@<TRIPOS>BOND
   1    1    2 ar
   2    1   10 ar
   3    1   11 1
   4    2    3 ar
   5    2   32 1
   6    3    4 ar
   7    3   20 1
   8    4    5 ar
   9    4   23 1
  10    5    6 ar
  11    5   10 ar
  12    6    7 ar
  13    7    8 ar
  14    7   33 1
  15    8    9 ar
  16    8   34 1
  17    9   10 ar
  18    9   35 1
  19   11   12 1
  20   11   36 1
  21   11   37 1
  22   12   13 ar
  23   12   17 ar
  24   13   14 ar
  25   13   38 1
  26   14   15 ar
  27   14   39 1
  28   15   16 ar
  29   15   18 1
  30   16   17 ar
  31   17   40 1
  32   18   19 1
  33   19   41 1
  34   19   42 1
  35   19   43 1
  36   20   21 am
  37   20   24 2
  38   21   22 1
  39   21   25 1
  40   22   23 2
  41   22   44 1
  42   23   45 1
  43   25   26 1
  44   25   30 1
  45   25   46 1
  46   26   27 1
  47   26   31 1
  48   26   47 1
  49   27   28 1
  50   27   48 1
  51   27   49 1
  52   28   29 1
  53   29   30 1
  54   29   50 1
  55   29   51 1
  56   30   52 1
  57   30   53 1
  58   31   54 1

#	End of record

