#	Name: ASD01911581
#	Creating user name:	WinNT
#	Creation time:	15. 06. 2019 19:58

#	Modifying user name:	WinNT
#	Modification time:	15. 06. 2019 19:58

#	Program:	/corina/corina34_cracker 3.40 0067  02.08.2006

@<TRIPOS>MOLECULE
ASD01911581
  42   44    0    0    0
SMALL
NO_CHARGES


@<TRIPOS>ATOM
   1 N1             0.0374     1.1407    -0.7085 N.am    
   2 C2             0.0021    -0.0041     0.0020 C.2     
   3 C3            -1.2508    -0.7543     0.1205 C.2     
   4 C4            -1.3862    -2.1135     0.0310 C.2     
   5 S5            -2.8471    -0.0659     0.4110 S.3     
   6 C6            -3.5481    -1.6813     0.3771 C.2     
   7 N7            -2.6014    -2.5626     0.1691 N.2     
   8 C8            -4.9363    -1.9846     0.5542 C.1     
   9 C9            -6.0745    -2.2333     0.6993 C.1     
  10 C10           -7.4627    -2.5366     0.8764 C.ar    
  11 C11           -7.9039    -3.8625     0.8289 C.ar    
  12 C12           -9.2423    -4.1466     1.0008 C.ar    
  13 C13          -10.1481    -3.1233     1.2194 C.ar    
  14 C14           -9.7191    -1.8084     1.2677 C.ar    
  15 C15           -8.3831    -1.5088     1.1034 C.ar    
  16 O16            1.0110    -0.4146     0.5452 O.2     
  17 C17            1.2505     1.9716    -0.7415 C.3     
  18 C18           -1.1342     1.5890    -1.4763 C.3     
  19 C19           -1.4329     3.0449    -1.1029 C.3     
  20 N20           -0.2209     3.8536    -1.2901 N.3     
  21 C21            0.8628     3.4131    -0.3955 C.3     
  22 C22           -0.5084     5.2827    -1.1085 C.3     
  23 C23            0.8054     6.0654    -1.0625 C.3     
  24 H24           -0.5446    -2.7679    -0.1422 H       
  25 H25           -7.1983    -4.6621     0.6577 H       
  26 H26           -9.5846    -5.1703     0.9644 H       
  27 H27          -11.1951    -3.3520     1.3526 H       
  28 H28          -10.4319    -1.0152     1.4383 H       
  29 H29           -8.0499    -0.4822     1.1413 H       
  30 H30            1.9688     1.6001    -0.0105 H       
  31 H31            1.6892     1.9397    -1.7388 H       
  32 H32           -0.9208     1.5211    -2.5430 H       
  33 H33           -1.9934     0.9645    -1.2314 H       
  34 H34           -2.2284     3.4284    -1.7418 H       
  35 H35           -1.7468     3.0959    -0.0603 H       
  36 H36            0.5209     3.4560     0.6386 H       
  37 H37            1.7262     4.0665    -0.5209 H       
  38 H38           -1.1152     5.6399    -1.9406 H       
  39 H39           -1.0510     5.4284    -0.1744 H       
  40 H40            1.4122     5.7083    -0.2304 H       
  41 H41            1.3480     5.9198    -1.9966 H       
  42 H42            0.5921     7.1258    -0.9277 H       
@<TRIPOS>BOND
   1    1    2 am
   2    1   18 1
   3    1   17 1
   4    2    3 1
   5    2   16 2
   6    3    4 2
   7    3    5 1
   8    4    7 1
   9    4   24 1
  10    5    6 1
  11    6    7 2
  12    6    8 1
  13    8    9 3
  14    9   10 1
  15   10   11 ar
  16   10   15 ar
  17   11   12 ar
  18   11   25 1
  19   12   13 ar
  20   12   26 1
  21   13   14 ar
  22   13   27 1
  23   14   15 ar
  24   14   28 1
  25   15   29 1
  26   17   21 1
  27   17   30 1
  28   17   31 1
  29   18   19 1
  30   18   32 1
  31   18   33 1
  32   19   20 1
  33   19   34 1
  34   19   35 1
  35   20   21 1
  36   20   22 1
  37   21   36 1
  38   21   37 1
  39   22   23 1
  40   22   38 1
  41   22   39 1
  42   23   40 1
  43   23   41 1
  44   23   42 1

#	End of record

