#	Name: ASD08178025
#	Creating user name:	WinNT
#	Creation time:	15. 06. 2019 21:18

#	Modifying user name:	WinNT
#	Modification time:	15. 06. 2019 21:18

#	Program:	/corina/corina34_cracker 3.40 0067  02.08.2006

@<TRIPOS>MOLECULE
ASD08178025
  58   61    0    0    0
SMALL
NO_CHARGES


@<TRIPOS>ATOM
   1 N1            -0.0155     1.2947     0.0092 N.2     
   2 C2             0.0021    -0.0041     0.0020 C.2     
   3 N3            -1.1168    -0.8300     0.0076 N.am    
   4 N4             1.0945     1.8960     0.0018 N.2     
   5 C5             2.1557     1.1534    -0.0123 C.2     
   6 S6             1.6320    -0.5310    -0.0164 S.3     
   7 C7             3.5816     1.6410    -0.0241 C.3     
   8 C8             4.0787     1.7984     1.4143 C.3     
   9 C9             5.5263     2.2934     1.4024 C.3     
  10 C10            6.0234     2.4507     2.8408 C.3     
  11 C11            7.4493     2.9383     2.8291 C.2     
  12 N12            7.8338     4.1751     2.8322 N.2     
  13 N13            9.0796     4.3793     2.8214 N.2     
  14 C14            9.8607     3.3416     2.8082 C.2     
  15 S15            8.8945     1.9270     2.8164 S.3     
  16 N16           11.2510     3.3736     2.7944 N.am    
  17 C17           -2.3521    -0.2911     0.0220 C.2     
  18 O18           -2.4879     0.9140     0.0301 O.2     
  19 C19           -3.5646    -1.1861     0.0280 C.3     
  20 C20           -4.8124    -0.3413     0.0443 C.ar    
  21 C21           -5.3957     0.0530    -1.1453 C.ar    
  22 C22           -6.5403     0.8279    -1.1304 C.ar    
  23 C23           -7.1019     1.2082     0.0742 C.ar    
  24 C24           -6.5191     0.8131     1.2638 C.ar    
  25 C25           -5.3769     0.0346     1.2488 C.ar    
  26 C26           11.8979     4.5560     2.7944 C.2     
  27 C27           13.4044     4.5907     2.7793 C.3     
  28 O28           11.2676     5.5921     2.8065 O.2     
  29 C29           13.8740     6.0227     2.7825 C.ar    
  30 C30           14.1014     6.6728     3.9811 C.ar    
  31 C31           14.5321     7.9864     3.9840 C.ar    
  32 C32           14.7357     8.6496     2.7883 C.ar    
  33 C33           14.5092     7.9992     1.5898 C.ar    
  34 C34           14.0827     6.6843     1.5869 C.ar    
  35 H35           -1.0082    -1.7939     0.0010 H       
  36 H36            4.2081     0.9191    -0.5480 H       
  37 H37            3.6324     2.6033    -0.5334 H       
  38 H38            3.4522     2.5202     1.9383 H       
  39 H39            4.0279     0.8360     1.9237 H       
  40 H40            6.1528     1.5715     0.8785 H       
  41 H41            5.5771     3.2557     0.8931 H       
  42 H42            5.3969     3.1726     3.3648 H       
  43 H43            5.9726     1.4884     3.3501 H       
  44 H44           11.7552     2.5450     2.7847 H       
  45 H45           -3.5599    -1.8102    -0.8656 H       
  46 H46           -3.5436    -1.8204     0.9142 H       
  47 H47           -4.9570    -0.2441    -2.0864 H       
  48 H48           -6.9957     1.1366    -2.0598 H       
  49 H49           -7.9958     1.8142     0.0859 H       
  50 H50           -6.9576     1.1105     2.2049 H       
  51 H51           -4.9216    -0.2741     2.1783 H       
  52 H52           13.7884     4.0805     3.6627 H       
  53 H53           13.7705     4.0903     1.8828 H       
  54 H54           13.9423     6.1546     4.9152 H       
  55 H55           14.7091     8.4945     4.9204 H       
  56 H56           15.0715     9.6761     2.7906 H       
  57 H57           14.6680     8.5175     0.6557 H       
  58 H58           13.9057     6.1761     0.6505 H       
@<TRIPOS>BOND
   1    1    2 2
   2    1    4 1
   3    2    3 1
   4    2    6 1
   5    3   17 am
   6    3   35 1
   7    4    5 2
   8    5    6 1
   9    5    7 1
  10    7    8 1
  11    7   36 1
  12    7   37 1
  13    8    9 1
  14    8   38 1
  15    8   39 1
  16    9   10 1
  17    9   40 1
  18    9   41 1
  19   10   11 1
  20   10   42 1
  21   10   43 1
  22   11   12 2
  23   11   15 1
  24   12   13 1
  25   13   14 2
  26   14   15 1
  27   14   16 1
  28   16   26 am
  29   16   44 1
  30   17   18 2
  31   17   19 1
  32   19   20 1
  33   19   45 1
  34   19   46 1
  35   20   21 ar
  36   20   25 ar
  37   21   22 ar
  38   21   47 1
  39   22   23 ar
  40   22   48 1
  41   23   24 ar
  42   23   49 1
  43   24   25 ar
  44   24   50 1
  45   25   51 1
  46   26   27 1
  47   26   28 2
  48   27   29 1
  49   27   52 1
  50   27   53 1
  51   29   30 ar
  52   29   34 ar
  53   30   31 ar
  54   30   54 1
  55   31   32 ar
  56   31   55 1
  57   32   33 ar
  58   32   56 1
  59   33   34 ar
  60   33   57 1
  61   34   58 1

#	End of record

