#	Name: ASD01917761
#	Creating user name:	WinNT
#	Creation time:	15. 06. 2019 20:10

#	Modifying user name:	WinNT
#	Modification time:	15. 06. 2019 20:10

#	Program:	/corina/corina34_cracker 3.40 0067  02.08.2006

@<TRIPOS>MOLECULE
ASD01917761
  43   46    0    0    0
SMALL
NO_CHARGES


@<TRIPOS>ATOM
   1 C1            -0.5756     1.8047     1.0808 C.2     
   2 C2            -0.3628     0.4752     1.1148 C.2     
   3 C3            -1.3842    -0.5643     0.7285 C.3     
   4 C4            -2.7757     0.0808     0.7389 C.3     
   5 N5            -2.7084     1.3832     0.0592 N.am    
   6 C6            -1.8762     2.4423     0.6586 C.3     
   7 C7            -3.3897     1.6029    -1.0828 C.2     
   8 O8            -3.9901     0.6910    -1.6174 O.2     
   9 C9            -3.4069     2.9516    -1.6846 C.ar    
  10 O10            0.5524     2.4028     1.4859 O.3     
  11 C11            1.4429     1.4384     1.7672 C.2     
  12 N12            0.8908     0.2772     1.5438 N.2     
  13 C13            2.8497     1.6604     2.2598 C.3     
  14 O14            3.7344     1.7662     1.1425 O.3     
  15 C15            5.0503     1.9694     1.4147 C.ar    
  16 C16            5.9650     2.0816     0.3777 C.ar    
  17 C17            7.3021     2.2881     0.6569 C.ar    
  18 C18            7.7290     2.3829     1.9686 C.ar    
  19 C19            6.8194     2.2709     3.0039 C.ar    
  20 C20            5.4803     2.0706     2.7298 C.ar    
  21 C21           -3.5866     4.0773    -0.8785 C.ar    
  22 C22           -3.6017     5.3337    -1.4467 C.ar    
  23 C23           -3.4397     5.4822    -2.8133 C.ar    
  24 C24           -3.2611     4.3738    -3.6199 C.ar    
  25 C25           -3.2375     3.1078    -3.0641 C.ar    
  26 F26           -3.0629     2.0246    -3.8524 F       
  27 H27           -1.1632    -0.9399    -0.2706 H       
  28 H28           -1.3574    -1.3863     1.4439 H       
  29 H29           -3.4811    -0.5662     0.2175 H       
  30 H30           -3.1033     0.2237     1.7686 H       
  31 H31           -2.3815     2.8639     1.5275 H       
  32 H32           -1.6850     3.2243    -0.0762 H       
  33 H33            2.8895     2.5802     2.8432 H       
  34 H34            3.1526     0.8203     2.8848 H       
  35 H35            5.6321     2.0073    -0.6471 H       
  36 H36            8.0146     2.3751    -0.1500 H       
  37 H37            8.7747     2.5443     2.1848 H       
  38 H38            7.1554     2.3446     4.0276 H       
  39 H39            4.7702     1.9832     3.5388 H       
  40 H40           -3.7139     3.9643     0.1880 H       
  41 H41           -3.7407     6.2047    -0.8234 H       
  42 H42           -3.4533     6.4691    -3.2518 H       
  43 H43           -3.1354     4.4971    -4.6854 H       
@<TRIPOS>BOND
   1    1    2 2
   2    1   10 1
   3    1    6 1
   4    2    3 1
   5    2   12 1
   6    3    4 1
   7    3   27 1
   8    3   28 1
   9    4    5 1
  10    4   29 1
  11    4   30 1
  12    5    6 1
  13    5    7 am
  14    6   31 1
  15    6   32 1
  16    7    8 2
  17    7    9 1
  18    9   21 ar
  19    9   25 ar
  20   10   11 1
  21   11   12 2
  22   11   13 1
  23   13   14 1
  24   13   33 1
  25   13   34 1
  26   14   15 1
  27   15   16 ar
  28   15   20 ar
  29   16   17 ar
  30   16   35 1
  31   17   18 ar
  32   17   36 1
  33   18   19 ar
  34   18   37 1
  35   19   20 ar
  36   19   38 1
  37   20   39 1
  38   21   22 ar
  39   21   40 1
  40   22   23 ar
  41   22   41 1
  42   23   24 ar
  43   23   42 1
  44   24   25 ar
  45   24   43 1
  46   25   26 1

#	End of record

