#	Name: ASD06582002
#	Creating user name:	WinNT
#	Creation time:	15. 06. 2019 21:06

#	Modifying user name:	WinNT
#	Modification time:	15. 06. 2019 21:06

#	Program:	/corina/corina34_cracker 3.40 0067  02.08.2006

@<TRIPOS>MOLECULE
ASD06582002
  36   37    0    0    0
SMALL
NO_CHARGES


@<TRIPOS>ATOM
   1 C1            -1.6945     1.1045     3.1772 C.ar    
   2 C2            -1.7359    -0.2868     3.0315 C.ar    
   3 N3            -2.3128    -0.8277     1.9662 N.ar    
   4 C4            -2.8515    -0.0475     1.0372 C.ar    
   5 C5            -2.8082     1.3473     1.1865 C.ar    
   6 N6            -2.2318     1.8820     2.2619 N.ar    
   7 Cl7           -0.9382     1.8064     4.5734 Cl      
   8 N8            -1.1733    -1.1003     4.0008 N.pl3   
   9 N9            -3.4537    -0.6079    -0.0756 N.pl3   
  10 C10           -3.4059     2.2206     0.1562 C.2     
  11 N11           -3.4714     3.5450     0.3557 N.2     
  12 O12           -3.8395     1.7375    -0.8752 O.2     
  13 C13           -4.6281     4.1766     0.2313 C.2     
  14 N14           -5.7723     3.4673     0.0113 N.pl3   
  15 N15           -4.6759     5.5368     0.3233 N.pl3   
  16 C16           -5.9560     6.2358     0.1858 C.3     
  17 C17           -5.7356     7.7199     0.3262 C.ar    
  18 C18           -5.4605     8.4866    -0.7906 C.ar    
  19 C19           -5.2583     9.8480    -0.6618 C.ar    
  20 C20           -5.3315    10.4428     0.5839 C.ar    
  21 C21           -5.6074     9.6762     1.7007 C.ar    
  22 C22           -5.8140     8.3155     1.5712 C.ar    
  23 H23           -0.7511    -0.7058     4.7799 H       
  24 H24           -1.2016    -2.0647     3.9007 H       
  25 H25           -3.4086    -1.5659    -0.2207 H       
  26 H26           -3.9209    -0.0427    -0.7106 H       
  27 H27           -5.7513     2.4976     0.0210 H       
  28 H28           -6.6070     3.9327    -0.1550 H       
  29 H29           -3.8622     6.0411     0.4798 H       
  30 H30           -6.3826     6.0230    -0.7945 H       
  31 H31           -6.6412     5.8951     0.9620 H       
  32 H32           -5.4033     8.0219    -1.7639 H       
  33 H33           -5.0427    10.4469    -1.5343 H       
  34 H34           -5.1728    11.5063     0.6847 H       
  35 H35           -5.6643    10.1408     2.6740 H       
  36 H36           -6.0295     7.7166     2.4437 H       
@<TRIPOS>BOND
   1    1    2 ar
   2    1    7 1
   3    1    6 ar
   4    2    3 ar
   5    2    8 1
   6    3    4 ar
   7    4    5 ar
   8    4    9 1
   9    5    6 ar
  10    5   10 1
  11    8   23 1
  12    8   24 1
  13    9   25 1
  14    9   26 1
  15   10   11 1
  16   10   12 2
  17   11   13 2
  18   13   14 1
  19   13   15 1
  20   14   27 1
  21   14   28 1
  22   15   16 1
  23   15   29 1
  24   16   17 1
  25   16   30 1
  26   16   31 1
  27   17   18 ar
  28   17   22 ar
  29   18   19 ar
  30   18   32 1
  31   19   20 ar
  32   19   33 1
  33   20   21 ar
  34   20   34 1
  35   21   22 ar
  36   21   35 1
  37   22   36 1

#	End of record

