#	Name: ASD01150877
#	Creating user name:	WinNT
#	Creation time:	15. 06. 2019 19:05

#	Modifying user name:	WinNT
#	Modification time:	15. 06. 2019 19:05

#	Program:	/corina/corina34_cracker 3.40 0067  02.08.2006

@<TRIPOS>MOLECULE
ASD01150877
  48   49    0    0    0
SMALL
NO_CHARGES


@<TRIPOS>ATOM
   1 C1            -0.0184     1.5028     0.0103 C.3     
   2 C2             0.0021    -0.0041     0.0020 C.2     
   3 N3             0.6044    -0.6754     1.0035 N.am    
   4 O4            -0.5234    -0.6126    -0.9058 O.2     
   5 C5             0.6232    -2.0662     0.9959 C.2     
   6 N6             0.0862    -2.8554     0.0625 N.2     
   7 C7             0.2893    -4.1202     0.3699 C.2     
   8 N8             0.9791    -4.1941     1.5373 N.pl3   
   9 C9             1.2094    -2.8823     1.9549 C.2     
  10 C10            1.8907    -2.4697     3.1180 C.2     
  11 O11            2.4012    -3.3904     3.9639 O.3     
  12 O12            2.0189    -1.2831     3.3600 O.2     
  13 C13            3.0791    -2.9012     5.1229 C.3     
  14 C14            3.5844    -4.0819     5.9545 C.3     
  15 S15           -0.2506    -5.5000    -0.5837 S.3     
  16 C16           -1.0701    -4.6378    -1.9479 C.3     
  17 C17            1.4046    -5.4163     2.2240 C.3     
  18 C18            1.4170     2.0324    -0.0006 C.3     
  19 C19           -0.7584     2.0096    -1.2292 C.3     
  20 C20            2.7745    -5.8145     1.7381 C.ar    
  21 C21            3.9015    -5.3373     2.3806 C.ar    
  22 C22            5.1580    -5.7025     1.9349 C.ar    
  23 C23            5.2874    -6.5454     0.8469 C.ar    
  24 C24            4.1604    -7.0234     0.2049 C.ar    
  25 C25            2.9038    -6.6616     0.6533 C.ar    
  26 H26           -0.5286     1.8543     0.9071 H       
  27 H27            1.0247    -0.1886     1.7297 H       
  28 H28            3.9241    -2.2846     4.8164 H       
  29 H29            2.3913    -2.3035     5.7209 H       
  30 H30            2.7395    -4.6984     6.2610 H       
  31 H31            4.2723    -4.6795     5.3564 H       
  32 H32            4.1015    -3.7087     6.8385 H       
  33 H33           -0.3494    -4.0003    -2.4600 H       
  34 H34           -1.4723    -5.3682    -2.6500 H       
  35 H35           -1.8821    -4.0258    -1.5554 H       
  36 H36            1.4384    -5.2363     3.2985 H       
  37 H37            0.6967    -6.2175     2.0118 H       
  38 H38            1.4022     3.1222     0.0054 H       
  39 H39            1.9442     1.6713     0.8825 H       
  40 H40            1.9272     1.6808    -0.8974 H       
  41 H41           -1.7809     1.6323    -1.2215 H       
  42 H42           -0.7731     3.0995    -1.2232 H       
  43 H43           -0.2482     1.6581    -2.1260 H       
  44 H44            3.8004    -4.6787     3.2306 H       
  45 H45            6.0386    -5.3291     2.4364 H       
  46 H46            6.2691    -6.8302     0.4982 H       
  47 H47            4.2615    -7.6816    -0.6453 H       
  48 H48            2.0232    -7.0350     0.1518 H       
@<TRIPOS>BOND
   1    1    2 1
   2    1   18 1
   3    1   19 1
   4    1   26 1
   5    2    3 am
   6    2    4 2
   7    3    5 1
   8    3   27 1
   9    5    6 1
  10    5    9 2
  11    6    7 2
  12    7    8 1
  13    7   15 1
  14    8    9 1
  15    8   17 1
  16    9   10 1
  17   10   11 1
  18   10   12 2
  19   11   13 1
  20   13   14 1
  21   13   28 1
  22   13   29 1
  23   14   30 1
  24   14   31 1
  25   14   32 1
  26   15   16 1
  27   16   33 1
  28   16   34 1
  29   16   35 1
  30   17   20 1
  31   17   36 1
  32   17   37 1
  33   18   38 1
  34   18   39 1
  35   18   40 1
  36   19   41 1
  37   19   42 1
  38   19   43 1
  39   20   21 ar
  40   20   25 ar
  41   21   22 ar
  42   21   44 1
  43   22   23 ar
  44   22   45 1
  45   23   24 ar
  46   23   46 1
  47   24   25 ar
  48   24   47 1
  49   25   48 1

#	End of record

