#	Name: ASD02401011
#	Creating user name:	WinNT
#	Creation time:	15. 06. 2019 20:20

#	Modifying user name:	WinNT
#	Modification time:	15. 06. 2019 20:20

#	Program:	/corina/corina34_cracker 3.40 0067  02.08.2006

@<TRIPOS>MOLECULE
ASD02401011
  30   32    0    0    0
SMALL
NO_CHARGES


@<TRIPOS>ATOM
   1 C1            -0.0033     1.3965     0.0394 C.ar    
   2 C2             0.0114     0.0136     0.0269 C.ar    
   3 C3             1.2104    -0.6686     0.0068 C.ar    
   4 C4             2.4143     0.0377    -0.0009 C.ar    
   5 C5             2.3891     1.4297     0.0117 C.ar    
   6 C6             1.1865     2.1033     0.0317 C.ar    
   7 C7             3.8195     1.9104    -0.0004 C.3     
   8 C8             4.6769     0.6685    -0.0210 C.ar    
   9 C9             3.8223    -0.4310    -0.0210 C.ar    
  10 C10            4.3610    -1.7178    -0.0377 C.ar    
  11 C11            5.7356    -1.8912    -0.0542 C.ar    
  12 C12            6.5777    -0.7857    -0.0536 C.ar    
  13 C13            6.0448     0.4895    -0.0386 C.ar    
  14 N14            6.2769    -3.1816    -0.0710 N.am    
  15 C15            7.4140    -3.4266    -0.7516 C.2     
  16 C16            8.0620    -4.7849    -0.6722 C.3     
  17 O17            7.9159    -2.5539    -1.4281 O.2     
  18 H18           -0.9448     1.9256     0.0506 H       
  19 H19           -0.9192    -0.5343     0.0332 H       
  20 H20            1.2175    -1.7486    -0.0025 H       
  21 H21            1.1728     3.1831     0.0411 H       
  22 H22            4.0063     2.5102    -0.8911 H       
  23 H23            4.0266     2.4945     0.8963 H       
  24 H24            3.7075    -2.5776    -0.0375 H       
  25 H25            7.6488    -0.9230    -0.0661 H       
  26 H26            6.7006     1.3476    -0.0387 H       
  27 H27            5.8336    -3.8997     0.4073 H       
  28 H28            7.4721    -5.4314    -0.0225 H       
  29 H29            8.1137    -5.2217    -1.6695 H       
  30 H30            9.0689    -4.6840    -0.2671 H       
@<TRIPOS>BOND
   1    1    2 ar
   2    1    6 ar
   3    1   18 1
   4    2    3 ar
   5    2   19 1
   6    3    4 ar
   7    3   20 1
   8    4    5 ar
   9    4    9 1
  10    5    6 ar
  11    5    7 1
  12    6   21 1
  13    7    8 1
  14    7   22 1
  15    7   23 1
  16    8    9 ar
  17    8   13 ar
  18    9   10 ar
  19   10   11 ar
  20   10   24 1
  21   11   12 ar
  22   11   14 1
  23   12   13 ar
  24   12   25 1
  25   13   26 1
  26   14   15 am
  27   14   27 1
  28   15   16 1
  29   15   17 2
  30   16   28 1
  31   16   29 1
  32   16   30 1

#	End of record

