#	Name: ASD09740537
#	Creating user name:	WinNT
#	Creation time:	15. 06. 2019 21:23

#	Modifying user name:	WinNT
#	Modification time:	15. 06. 2019 21:23

#	Program:	/corina/corina34_cracker 3.40 0067  02.08.2006

@<TRIPOS>MOLECULE
ASD09740537
  74   78    0    0    0
SMALL
NO_CHARGES


@<TRIPOS>ATOM
   1 N1            -1.5102     2.3976     0.6723 N.2     
   2 C2            -1.4586     1.1257     0.9807 C.2     
   3 C3            -0.3859     3.0575     0.6760 C.2     
   4 S4             0.9251     1.9682     1.1202 S.3     
   5 C5            -0.2295     0.6449     1.2693 C.2     
   6 C6            -0.2352     4.4923     0.3570 C.ar    
   7 C7            -1.3526     5.2516     0.0181 C.ar    
   8 C8             1.0283     5.0892     0.4010 C.ar    
   9 C9             1.1747     6.4273     0.1049 C.ar    
  10 C10            0.0692     7.1922    -0.2386 C.ar    
  11 C11           -1.2044     6.6049    -0.2814 C.ar    
  12 O12            0.2190     8.5090    -0.5283 O.3     
  13 C13            1.5460     9.0369    -0.4806 C.3     
  14 C14            1.6296    10.2868    -1.3591 C.3     
  15 C15            1.8975     9.4036     0.9626 C.3     
  16 C16           -2.3471     7.3917    -0.6360 C.1     
  17 N17           -3.2535     8.0159    -0.9174 N.1     
  18 C18            0.0911    -0.7482     1.6446 C.ar    
  19 C19            1.1214    -1.4298     0.9904 C.ar    
  20 C20            1.4156    -2.7302     1.3455 C.ar    
  21 C21            0.6899    -3.3546     2.3480 C.ar    
  22 C22           -0.3303    -2.6849     2.9977 C.ar    
  23 C23           -0.6304    -1.3827     2.6561 C.ar    
  24 C24            2.0466    -0.9788    -0.1192 C.3     
  25 C25            3.2167    -1.9852    -0.1030 C.3     
  26 C26            2.5600    -3.2457     0.4988 C.3     
  27 N27            3.5219    -3.9717     1.3318 N.am    
  28 C28            3.3700    -5.2947     1.5392 C.2     
  29 N29            4.3078    -5.9819     2.2209 N.am    
  30 O30            2.3870    -5.8682     1.1113 O.2     
  31 C31            5.4448    -5.2859     2.8386 C.3     
  32 C32            6.7438    -5.9382     2.3552 C.3     
  33 C33            6.6940    -7.4402     2.6445 C.3     
  34 C34            5.5251    -8.0696     1.8831 C.3     
  35 C35            4.2092    -7.4407     2.3658 C.3     
  36 C36            8.0042    -8.0897     2.1944 C.3     
  37 C37            8.0057    -9.5439     2.5897 C.2     
  38 O38            9.0618   -10.3183     2.2952 O.3     
  39 O39            7.0563   -10.0128     3.1716 O.2     
  40 C40            8.9942   -11.7093     2.7063 C.3     
  41 H41           -2.3404     0.5026     1.0031 H       
  42 H42           -2.3301     4.7935    -0.0129 H       
  43 H43            1.8928     4.4997     0.6684 H       
  44 H44            2.1535     6.8823     0.1407 H       
  45 H45            2.2484     8.2880    -0.8465 H       
  46 H46            0.9273    11.0357    -0.9932 H       
  47 H47            2.6418    10.6894    -1.3227 H       
  48 H48            1.3793    10.0255    -2.3873 H       
  49 H49            1.8379     8.5132     1.5885 H       
  50 H50            2.9097     9.8063     0.9990 H       
  51 H51            1.1951    10.1525     1.3286 H       
  52 H52            0.9230    -4.3726     2.6234 H       
  53 H53           -0.8900    -3.1805     3.7771 H       
  54 H54           -1.4271    -0.8592     3.1637 H       
  55 H55            1.5311    -1.0134    -1.0790 H       
  56 H56            2.4116     0.0290     0.0789 H       
  57 H57            3.5747    -2.1797    -1.1140 H       
  58 H58            4.0261    -1.6283     0.5339 H       
  59 H59            2.1827    -3.8909    -0.2946 H       
  60 H60            4.2680    -3.5002     1.7340 H       
  61 H61            5.4326    -4.2357     2.5467 H       
  62 H62            5.3770    -5.3665     3.9234 H       
  63 H63            6.8545    -5.7777     1.2828 H       
  64 H64            7.5905    -5.4947     2.8792 H       
  65 H65            6.5586    -7.5997     3.7142 H       
  66 H66            5.6472    -7.8890     0.8151 H       
  67 H67            5.5044    -9.1430     2.0710 H       
  68 H68            4.0429    -7.6990     3.4116 H       
  69 H69            3.3829    -7.8119     1.7596 H       
  70 H70            8.0973    -8.0074     1.1115 H       
  71 H71            8.8434    -7.5828     2.6708 H       
  72 H72            9.9091   -12.2212     2.4079 H       
  73 H73            8.8845   -11.7632     3.7894 H       
  74 H74            8.1384   -12.1877     2.2301 H       
@<TRIPOS>BOND
   1    1    2 1
   2    1    3 2
   3    2    5 2
   4    2   41 1
   5    3    4 1
   6    3    6 1
   7    4    5 1
   8    5   18 1
   9    6    7 ar
  10    6    8 ar
  11    7   11 ar
  12    7   42 1
  13    8    9 ar
  14    8   43 1
  15    9   10 ar
  16    9   44 1
  17   10   11 ar
  18   10   12 1
  19   11   16 1
  20   12   13 1
  21   13   14 1
  22   13   15 1
  23   13   45 1
  24   14   46 1
  25   14   47 1
  26   14   48 1
  27   15   49 1
  28   15   50 1
  29   15   51 1
  30   16   17 3
  31   18   19 ar
  32   18   23 ar
  33   19   20 ar
  34   19   24 1
  35   20   21 ar
  36   20   26 1
  37   21   22 ar
  38   21   52 1
  39   22   23 ar
  40   22   53 1
  41   23   54 1
  42   24   25 1
  43   24   55 1
  44   24   56 1
  45   25   26 1
  46   25   57 1
  47   25   58 1
  48   26   27 1
  49   26   59 1
  50   27   28 am
  51   27   60 1
  52   28   29 am
  53   28   30 2
  54   29   31 1
  55   29   35 1
  56   31   32 1
  57   31   61 1
  58   31   62 1
  59   32   33 1
  60   32   63 1
  61   32   64 1
  62   33   34 1
  63   33   36 1
  64   33   65 1
  65   34   35 1
  66   34   66 1
  67   34   67 1
  68   35   68 1
  69   35   69 1
  70   36   37 1
  71   36   70 1
  72   36   71 1
  73   37   38 1
  74   37   39 2
  75   38   40 1
  76   40   72 1
  77   40   73 1
  78   40   74 1

#	End of record

