#	Name: ASD00111022
#	Creating user name:	WinNT
#	Creation time:	15. 06. 2019 18:30

#	Modifying user name:	WinNT
#	Modification time:	15. 06. 2019 18:30

#	Program:	/corina/corina34_cracker 3.40 0067  02.08.2006

@<TRIPOS>MOLECULE
ASD00111022
  34   35    0    0    0
SMALL
NO_CHARGES


@<TRIPOS>ATOM
   1 C1             0.0187     1.4141     0.1010 C.ar    
   2 C2             0.0519     0.0265     0.1057 C.ar    
   3 C3            -1.1352    -0.6863     0.1058 C.ar    
   4 C4            -2.3538    -0.0220     0.1010 C.ar    
   5 C5            -2.3857     1.3526     0.0743 C.ar    
   6 C6            -1.1949     2.0695     0.0906 C.ar    
   7 C7            -3.6077    -0.8545     0.1555 C.3     
   8 C8            -4.5949    -0.4144    -0.9290 C.3     
   9 N9            -5.5006     0.5746    -0.3413 N.3     
  10 C10           -4.8189     1.3891     0.6729 C.3     
  11 C11           -3.6697     2.1424     0.0050 C.3     
  12 Br12           1.6310     2.4021     0.1166 Br      
  13 O13            1.2427    -0.6288     0.1098 O.3     
  14 C14           -3.4717     3.4845     0.7125 C.3     
  15 C15           -4.7026     4.3653     0.4892 C.3     
  16 C16           -3.2796     3.2472     2.2117 C.3     
  17 H17           -1.1127    -1.7660     0.1092 H       
  18 H18           -1.2201     3.1492     0.0868 H       
  19 H19           -3.3500    -1.9026     0.0028 H       
  20 H20           -4.0737    -0.7386     1.1340 H       
  21 H21           -4.0522     0.0321    -1.7621 H       
  22 H22           -5.1656    -1.2747    -1.2788 H       
  23 H23           -5.9129     1.1565    -1.0550 H       
  24 H24           -5.5225     2.1020     1.1027 H       
  25 H25           -4.4252     0.7424     1.4571 H       
  26 H26           -3.9213     2.3243    -1.0398 H       
  27 H27            1.5859    -0.8154     0.9944 H       
  28 H28           -2.5905     3.9821     0.3076 H       
  29 H29           -5.5944     3.8347     0.8228 H       
  30 H30           -4.5959     5.2895     1.0571 H       
  31 H31           -4.7944     4.5992    -0.5715 H       
  32 H32           -2.4590     2.5467     2.3665 H       
  33 H33           -3.0477     4.1925     2.7024 H       
  34 H34           -4.1952     2.8334     2.6344 H       
@<TRIPOS>BOND
   1    1    2 ar
   2    1   12 1
   3    1    6 ar
   4    2    3 ar
   5    2   13 1
   6    3    4 ar
   7    3   17 1
   8    4    5 ar
   9    4    7 1
  10    5    6 ar
  11    5   11 1
  12    6   18 1
  13    7    8 1
  14    7   19 1
  15    7   20 1
  16    8    9 1
  17    8   21 1
  18    8   22 1
  19    9   10 1
  20    9   23 1
  21   10   11 1
  22   10   24 1
  23   10   25 1
  24   11   14 1
  25   11   26 1
  26   13   27 1
  27   14   15 1
  28   14   16 1
  29   14   28 1
  30   15   29 1
  31   15   30 1
  32   15   31 1
  33   16   32 1
  34   16   33 1
  35   16   34 1

#	End of record

