#	Name: ASD01911625
#	Creating user name:	WinNT
#	Creation time:	15. 06. 2019 19:58

#	Modifying user name:	WinNT
#	Modification time:	15. 06. 2019 19:58

#	Program:	/corina/corina34_cracker 3.40 0067  02.08.2006

@<TRIPOS>MOLECULE
ASD01911625
  31   33    0    0    0
SMALL
NO_CHARGES


@<TRIPOS>ATOM
   1 N1            -0.0162     1.3436     0.0094 N.am    
   2 C2             0.0021    -0.0041     0.0020 C.2     
   3 C3            -1.2566    -0.7538     0.0100 C.2     
   4 C4            -1.3813    -2.1170     0.0039 C.2     
   5 S5            -2.8763    -0.0590     0.0369 S.3     
   6 C6            -3.5692    -1.6782     0.0292 C.2     
   7 N7            -2.6048    -2.5645     0.0131 N.2     
   8 C8            -4.9692    -1.9790     0.0438 C.1     
   9 C9            -6.1169    -2.2256     0.0558 C.1     
  10 C10           -7.5169    -2.5264     0.0704 C.ar    
  11 C11           -7.9501    -3.8558     0.0624 C.ar    
  12 C12          -10.2250    -3.1082     0.0982 C.ar    
  13 C13           -9.8039    -1.7899     0.1125 C.ar    
  14 C14           -8.4575    -1.4922     0.0986 C.ar    
  15 O15            1.0643    -0.5982    -0.0113 O.2     
  16 C16            1.2424     2.0932     0.0014 C.3     
  17 C17           -9.2999    -4.1374     0.0766 C.ar    
  18 C18            1.2145     3.5146    -0.5643 C.3     
  19 C19            1.3556     3.2938     0.9431 C.3     
  20 H20           -0.8627     1.8171     0.0160 H       
  21 H21           -0.5253    -2.7754    -0.0082 H       
  22 H22           -7.2294    -4.6599     0.0448 H       
  23 H23          -11.2808    -3.3351     0.1091 H       
  24 H24          -10.5317    -0.9922     0.1293 H       
  25 H25           -8.1305    -0.4630     0.1098 H       
  26 H26            2.1413     1.5010    -0.1698 H       
  27 H27           -9.6361    -5.1637     0.0704 H       
  28 H28            2.0952     3.8575    -1.1073 H       
  29 H29            0.2597     3.8918    -0.9305 H       
  30 H30            0.4936     3.5258     1.5686 H       
  31 H31            2.3291     3.4915     1.3918 H       
@<TRIPOS>BOND
   1    1    2 am
   2    1   16 1
   3    1   20 1
   4    2    3 1
   5    2   15 2
   6    3    4 2
   7    3    5 1
   8    4    7 1
   9    4   21 1
  10    5    6 1
  11    6    7 2
  12    6    8 1
  13    8    9 3
  14    9   10 1
  15   10   11 ar
  16   10   14 ar
  17   11   17 ar
  18   11   22 1
  19   12   13 ar
  20   12   17 ar
  21   12   23 1
  22   13   14 ar
  23   13   24 1
  24   14   25 1
  25   16   18 1
  26   16   19 1
  27   16   26 1
  28   17   27 1
  29   18   19 1
  30   18   28 1
  31   18   29 1
  32   19   30 1
  33   19   31 1

#	End of record

