#	Name: ASD01140436
#	Creating user name:	WinNT
#	Creation time:	15. 06. 2019 19:00

#	Modifying user name:	WinNT
#	Modification time:	15. 06. 2019 19:00

#	Program:	/corina/corina34_cracker 3.40 0067  02.08.2006

@<TRIPOS>MOLECULE
ASD01140436
  57   58    0    0    0
SMALL
NO_CHARGES


@<TRIPOS>ATOM
   1 C1            -0.0168     1.3843     0.0097 C.ar    
   2 C2             0.0021    -0.0041     0.0020 C.ar    
   3 N3            -1.1188    -0.6984     0.0094 N.ar    
   4 C4            -2.2996    -0.1149     0.0243 C.ar    
   5 C5            -2.4064     1.2761     0.0324 C.ar    
   6 C6            -1.2378     2.0449     0.0307 C.ar    
   7 O7             1.1460     2.0880     0.0023 O.3     
   8 C8             2.3602     1.3347    -0.0133 C.3     
   9 C9             3.5541     2.2916    -0.0196 C.3     
  10 C10           -3.6920     1.9068     0.0476 C.1     
  11 C11           -4.7459     2.4239     0.0601 C.1     
  12 C12           -6.0673     3.0722     0.0758 C.3     
  13 C13           -5.8898     4.5919     0.0819 C.3     
  14 C14           -7.2633     5.2658     0.0981 C.3     
  15 C15           -7.0858     6.7854     0.1042 C.3     
  16 C16           -8.4593     7.4593     0.1205 C.3     
  17 C17            4.8665     1.4936     0.0898 C.3     
  18 C18            5.6641     1.8513    -1.1853 C.3     
  19 C19            5.0421     3.2038    -1.6149 C.3     
  20 N20            3.6009     3.0304    -1.3000 N.3     
  21 C21            2.9275     4.3306    -1.1825 C.3     
  22 C22           -8.2818     8.9789     0.1265 C.3     
  23 C23           -9.6553     9.6528     0.1428 C.3     
  24 C24           -9.4777    11.1725     0.1489 C.3     
  25 O25          -10.7606    11.8018     0.1641 O.3     
  26 H26            0.9491    -0.5231    -0.0106 H       
  27 H27           -3.1944    -0.7196     0.0300 H       
  28 H28           -1.2842     3.1239     0.0371 H       
  29 H29            2.4065     0.7017     0.8729 H       
  30 H30            2.3895     0.7113    -0.9070 H       
  31 H31            3.4739     2.9904     0.8131 H       
  32 H32           -6.6282     2.7755    -0.8105 H       
  33 H33           -6.6115     2.7664     0.9694 H       
  34 H34           -5.3290     4.8887     0.9681 H       
  35 H35           -5.3456     4.8977    -0.8117 H       
  36 H36           -7.8241     4.9690    -0.7881 H       
  37 H37           -7.8075     4.9600     0.9917 H       
  38 H38           -6.5249     7.0822     0.9905 H       
  39 H39           -6.5416     7.0912    -0.7894 H       
  40 H40           -9.0201     7.1625    -0.7658 H       
  41 H41           -9.0034     7.1535     1.0141 H       
  42 H42            5.4198     1.7953     0.9792 H       
  43 H43            4.6578     0.4241     0.1179 H       
  44 H44            6.7234     1.9691    -0.9573 H       
  45 H45            5.5162     1.0962    -1.9573 H       
  46 H46            5.4665     4.0237    -1.0356 H       
  47 H47            5.1851     3.3712    -2.6824 H       
  48 H48            3.0148     4.8715    -2.1248 H       
  49 H49            1.8743     4.1746    -0.9494 H       
  50 H50            3.3939     4.9106    -0.3861 H       
  51 H51           -7.7209     9.2757     1.0128 H       
  52 H52           -7.7376     9.2847    -0.7670 H       
  53 H53          -10.2161     9.3560    -0.7435 H       
  54 H54          -10.1994     9.3470     1.0364 H       
  55 H55           -8.9169    11.4692     1.0352 H       
  56 H56           -8.9336    11.4783    -0.7447 H       
  57 H57          -10.7246    12.7682     0.1687 H       
@<TRIPOS>BOND
   1    1    2 ar
   2    1    7 1
   3    1    6 ar
   4    2    3 ar
   5    2   26 1
   6    3    4 ar
   7    4    5 ar
   8    4   27 1
   9    5    6 ar
  10    5   10 1
  11    6   28 1
  12    7    8 1
  13    8    9 1
  14    8   29 1
  15    8   30 1
  16    9   17 1
  17    9   20 1
  18    9   31 1
  19   10   11 3
  20   11   12 1
  21   12   13 1
  22   12   32 1
  23   12   33 1
  24   13   14 1
  25   13   34 1
  26   13   35 1
  27   14   15 1
  28   14   36 1
  29   14   37 1
  30   15   16 1
  31   15   38 1
  32   15   39 1
  33   16   22 1
  34   16   40 1
  35   16   41 1
  36   17   18 1
  37   17   42 1
  38   17   43 1
  39   18   19 1
  40   18   44 1
  41   18   45 1
  42   19   20 1
  43   19   46 1
  44   19   47 1
  45   20   21 1
  46   21   48 1
  47   21   49 1
  48   21   50 1
  49   22   23 1
  50   22   51 1
  51   22   52 1
  52   23   24 1
  53   23   53 1
  54   23   54 1
  55   24   25 1
  56   24   55 1
  57   24   56 1
  58   25   57 1

#	End of record

