#	Name: ASD00310026
#	Creating user name:	WinNT
#	Creation time:	15. 06. 2019 18:33

#	Modifying user name:	WinNT
#	Modification time:	15. 06. 2019 18:33

#	Program:	/corina/corina34_cracker 3.40 0067  02.08.2006

@<TRIPOS>MOLECULE
ASD00310026
  48   50    0    0    0
SMALL
NO_CHARGES


@<TRIPOS>ATOM
   1 F1            -1.9155    -9.1186    11.1696 F       
   2 O2            -0.0161     1.3349     0.0094 O.3     
   3 O3            -4.2995    -3.2615     6.7783 O.3     
   4 O4             0.7105     4.1767     0.0173 O.3     
   5 O5             2.8295     3.5067    -0.0070 O.2     
   6 C6            -1.6075    -1.2089     1.4535 C.3     
   7 C7            -2.8391    -2.1166     1.4604 C.3     
   8 C8            -1.2111    -0.8981     0.0088 C.3     
   9 C9            -3.2296    -2.4227     2.8834 C.ar    
  10 C10            0.0021    -0.0041     0.0020 C.2     
  11 C11           -4.1191    -1.5985     3.5475 C.ar    
  12 C12           -2.7021    -3.5306     3.5207 C.ar    
  13 C13           -3.9470    -2.9852     5.4953 C.ar    
  14 C14           -4.2249    -4.5655     8.8117 C.3     
  15 C15           -4.4790    -1.8772     4.8518 C.ar    
  16 C16           -3.0588    -3.8136     4.8249 C.ar    
  17 C17           -3.7126    -4.4185     7.3775 C.3     
  18 C18            1.2875    -0.4218    -0.0125 C.2     
  19 C19           -3.6060    -5.7857     9.4436 C.ar    
  20 C20            2.0949     0.7257    -0.0140 C.2     
  21 C21            1.2506     1.8000    -0.0002 C.2     
  22 C22           -2.4095    -5.6776    10.1276 C.ar    
  23 C23           -4.2381    -7.0111     9.3436 C.ar    
  24 C24           -1.8411    -6.7959    10.7075 C.ar    
  25 C25           -3.6717    -8.1306     9.9230 C.ar    
  26 C26            1.6503     3.2091     0.0031 C.2     
  27 C27           -2.4705    -8.0247    10.6035 C.ar    
  28 H28           -1.8379    -0.2799     1.9749 H       
  29 H29           -0.7820    -1.7127     1.9564 H       
  30 H30           -3.6646    -1.6128     0.9575 H       
  31 H31           -2.6087    -3.0456     0.9390 H       
  32 H32           -0.9807    -1.8271    -0.5126 H       
  33 H33           -2.0365    -0.3943    -0.4941 H       
  34 H34           -4.5326    -0.7358     3.0463 H       
  35 H35           -2.0109    -4.1754     2.9983 H       
  36 H36           -3.9528    -3.6807     9.3872 H       
  37 H37           -5.3096    -4.6725     8.8009 H       
  38 H38           -5.1735    -1.2329     5.3703 H       
  39 H39           -2.6462    -4.6789     5.3224 H       
  40 H40           -3.9847    -5.3033     6.8020 H       
  41 H41           -2.6280    -4.3115     7.3883 H       
  42 H42            1.6290    -1.4464    -0.0213 H       
  43 H43            3.1745     0.7544    -0.0239 H       
  44 H44           -1.9187    -4.7190    10.2086 H       
  45 H45           -5.1750    -7.0935     8.8128 H       
  46 H46           -0.9060    -6.7114    11.2412 H       
  47 H47           -4.1655    -9.0879     9.8445 H       
  48 H48            1.0228     5.0919     0.0190 H       
@<TRIPOS>BOND
   1    1   27 1
   2    2   10 1
   3    2   21 1
   4    3   13 1
   5    3   17 1
   6    4   26 1
   7    4   48 1
   8    5   26 2
   9    6    7 1
  10    6    8 1
  11    6   28 1
  12    6   29 1
  13    7    9 1
  14    7   30 1
  15    7   31 1
  16    8   10 1
  17    8   32 1
  18    8   33 1
  19    9   11 ar
  20    9   12 ar
  21   10   18 2
  22   11   15 ar
  23   11   34 1
  24   12   16 ar
  25   12   35 1
  26   13   15 ar
  27   13   16 ar
  28   14   17 1
  29   14   19 1
  30   14   36 1
  31   14   37 1
  32   15   38 1
  33   16   39 1
  34   17   40 1
  35   17   41 1
  36   18   20 1
  37   18   42 1
  38   19   22 ar
  39   19   23 ar
  40   20   21 2
  41   20   43 1
  42   21   26 1
  43   22   24 ar
  44   22   44 1
  45   23   25 ar
  46   23   45 1
  47   24   27 ar
  48   24   46 1
  49   25   27 ar
  50   25   47 1

#	End of record

