#	Name: ASD01410795
#	Creating user name:	WinNT
#	Creation time:	15. 06. 2019 19:18

#	Modifying user name:	WinNT
#	Modification time:	15. 06. 2019 19:18

#	Program:	/corina/corina34_cracker 3.40 0067  02.08.2006

@<TRIPOS>MOLECULE
ASD01410795
  64   66    0    0    0
SMALL
NO_CHARGES


@<TRIPOS>ATOM
   1 C1             0.0290     1.9251     0.9820 C.ar    
   2 C2            -0.8018    -0.3137     0.7121 C.ar    
   3 C3            -2.0305     0.1861     0.3037 C.ar    
   4 C4            -2.2340     1.5734     0.2454 C.ar    
   5 C5            -1.1910     2.4394     0.5825 C.ar    
   6 O6             1.0429     2.7674     1.3158 O.3     
   7 C7             2.1102     2.8414     0.4815 C.ar    
   8 N8            -3.0627    -0.6870    -0.0365 N.am    
   9 C9            -3.9798    -1.0384     0.8864 C.2     
  10 C10           -5.0458    -2.0469     0.5435 C.3     
  11 O11           -3.9473    -0.5429     1.9929 O.2     
  12 C12           -5.7017    -2.5531     1.8297 C.3     
  13 C13           -7.1865    -2.4124    -0.6919 C.3     
  14 C14           -7.8424    -2.9186     0.5944 C.3     
  15 C15           -6.7839    -3.5770     1.4816 C.3     
  16 C16           -8.9247    -3.9425     0.2462 C.3     
  17 N17            2.0916     2.1835    -0.6661 N.ar    
  18 C18            3.2096     3.6118     0.8378 C.ar    
  19 C19            4.2919     3.6793    -0.0224 C.ar    
  20 C20            4.2354     2.9702    -1.2142 C.ar    
  21 C21            3.1077     2.2285    -1.5063 C.ar    
  22 C22           -6.1043    -1.3885    -0.3437 C.3     
  23 C23            0.2204     0.5502     1.0491 C.ar    
  24 C24           -3.1503    -1.2227    -1.3972 C.3     
  25 C25           -1.9578    -2.1445    -1.6603 C.3     
  26 O26           -2.0400    -3.2858    -0.8043 O.3     
  27 C27           -0.9677    -4.2155    -0.9707 C.3     
  28 C28           -3.1342    -0.0687    -2.4017 C.3     
  29 C29           -3.5351     2.1138    -0.1876 C.2     
  30 O30           -4.4546     1.3589    -0.4351 O.2     
  31 O31           -3.7050     3.4451    -0.3089 O.3     
  32 C32            3.2238     4.3645     2.1433 C.3     
  33 F33            4.4319     5.0588     2.2682 F       
  34 F34            2.1595     5.2721     2.1699 F       
  35 F35            3.0931     3.4614     3.2038 F       
  36 H36           -0.6425    -1.3809     0.7579 H       
  37 H37           -1.3373     3.5082     0.5316 H       
  38 H38           -4.5956    -2.8847     0.0111 H       
  39 H39           -4.9476    -3.0222     2.4618 H       
  40 H40           -6.1519    -1.7153     2.3621 H       
  41 H41           -6.7363    -3.2502    -1.2242 H       
  42 H42           -7.9406    -1.9433    -1.3239 H       
  43 H43           -8.2926    -2.0808     1.1267 H       
  44 H44           -6.3337    -4.4149     0.9492 H       
  45 H45           -7.2512    -3.9377     2.3979 H       
  46 H46           -8.4744    -4.7804    -0.2861 H       
  47 H47           -9.3919    -4.3032     1.1626 H       
  48 H48           -9.6787    -3.4735    -0.3858 H       
  49 H49            5.1603     4.2705     0.2279 H       
  50 H50            5.0627     3.0017    -1.9077 H       
  51 H51            3.0589     1.6747    -2.4322 H       
  52 H52           -6.5545    -0.5507     0.1886 H       
  53 H53           -5.6371    -1.0278    -1.2601 H       
  54 H54            1.1744     0.1557     1.3662 H       
  55 H55           -4.0766    -1.7867    -1.5067 H       
  56 H56           -1.9719    -2.4689    -2.7008 H       
  57 H57           -1.0314    -1.6061    -1.4601 H       
  58 H58           -0.0208    -3.7202    -0.7562 H       
  59 H59           -1.1031    -5.0527    -0.2859 H       
  60 H60           -0.9613    -4.5829    -1.9969 H       
  61 H61           -2.2372     0.5319    -2.2507 H       
  62 H62           -3.1369    -0.4692    -3.4154 H       
  63 H63           -4.0171     0.5535    -2.2545 H       
  64 H64           -4.5759     3.7522    -0.5959 H       
@<TRIPOS>BOND
   1    1   23 ar
   2    1    6 1
   3    1    5 ar
   4    2    3 ar
   5    2   23 ar
   6    2   36 1
   7    3    4 ar
   8    3    8 1
   9    4    5 ar
  10    4   29 1
  11    5   37 1
  12    6    7 1
  13    7   18 ar
  14    7   17 ar
  15    8    9 am
  16    8   24 1
  17    9   11 2
  18    9   10 1
  19   10   12 1
  20   10   22 1
  21   10   38 1
  22   12   15 1
  23   12   39 1
  24   12   40 1
  25   13   14 1
  26   13   22 1
  27   13   41 1
  28   13   42 1
  29   14   15 1
  30   14   16 1
  31   14   43 1
  32   15   44 1
  33   15   45 1
  34   16   46 1
  35   16   47 1
  36   16   48 1
  37   17   21 ar
  38   18   19 ar
  39   18   32 1
  40   19   20 ar
  41   19   49 1
  42   20   21 ar
  43   20   50 1
  44   21   51 1
  45   22   52 1
  46   22   53 1
  47   23   54 1
  48   24   25 1
  49   24   28 1
  50   24   55 1
  51   25   26 1
  52   25   56 1
  53   25   57 1
  54   26   27 1
  55   27   58 1
  56   27   59 1
  57   27   60 1
  58   28   61 1
  59   28   62 1
  60   28   63 1
  61   29   30 2
  62   29   31 1
  63   31   64 1
  64   32   33 1
  65   32   34 1
  66   32   35 1

#	End of record

