#	Name: ASD01914909
#	Creating user name:	WinNT
#	Creation time:	15. 06. 2019 20:04

#	Modifying user name:	WinNT
#	Modification time:	15. 06. 2019 20:04

#	Program:	/corina/corina34_cracker 3.40 0067  02.08.2006

@<TRIPOS>MOLECULE
ASD01914909
  52   56    0    0    0
SMALL
NO_CHARGES


@<TRIPOS>ATOM
   1 C1            -0.0033     1.3310    -0.0213 C.2     
   2 N2             0.0139     0.0589     0.3179 N.2     
   3 C3             1.3081     1.7201    -0.3419 C.2     
   4 C4             2.1160     0.6325    -0.1826 C.2     
   5 N5             1.3319    -0.4058     0.2258 N.pl3   
   6 C6            -1.2037     2.2031    -0.0639 C.ar    
   7 C7            -2.4536     1.6891     0.2746 C.ar    
   8 C8            -3.5665     2.5044     0.2333 C.ar    
   9 C9            -3.4426     3.8294    -0.1438 C.ar    
  10 C10           -2.2041     4.3448    -0.4809 C.ar    
  11 C11           -1.0837     3.5400    -0.4370 C.ar    
  12 C12            3.5775     0.5877    -0.4112 C.ar    
  13 C13            4.1835     1.5202    -1.2533 C.ar    
  14 C14            5.5466     1.4731    -1.4624 C.ar    
  15 C15            6.3119     0.5037    -0.8391 C.ar    
  16 C16            5.7166    -0.4242    -0.0033 C.ar    
  17 C17            4.3554    -0.3837     0.2189 C.ar    
  18 C18            1.7879    -1.7672     0.5172 C.3     
  19 C19            2.0660    -1.8988     1.9925 C.2     
  20 N20            2.4995    -3.0721     2.4945 N.am    
  21 C21            2.7082    -4.2388     1.6176 C.3     
  22 C22            2.1250    -5.4386     2.3225 C.2     
  23 C23            1.7277    -5.4386     3.6094 C.2     
  24 C24            1.8018    -4.2447     4.5272 C.3     
  25 C25            2.7825    -3.2198     3.9300 C.3     
  26 O26            1.8996    -0.9490     2.7280 O.2     
  27 O27            1.9028    -6.6656     1.8332 O.3     
  28 C28            1.3765    -7.4059     2.8217 C.2     
  29 N29            1.2716    -6.6663     3.8917 N.2     
  30 C30            0.9734    -8.8539     2.7135 C.3     
  31 H31            1.6207     2.7042    -0.6584 H       
  32 H32           -2.5515     0.6545     0.5685 H       
  33 H33           -4.5359     2.1069     0.4955 H       
  34 H34           -4.3162     4.4637    -0.1755 H       
  35 H35           -2.1130     5.3801    -0.7746 H       
  36 H36           -0.1171     3.9435    -0.7000 H       
  37 H37            3.5871     2.2772    -1.7407 H       
  38 H38            6.0170     2.1942    -2.1144 H       
  39 H39            7.3784     0.4709    -1.0060 H       
  40 H40            6.3193    -1.1790     0.4799 H       
  41 H41            3.8919    -1.1084     0.8719 H       
  42 H42            1.0147    -2.4790     0.2283 H       
  43 H43            2.6993    -1.9730    -0.0441 H       
  44 H44            2.1991    -4.0837     0.6664 H       
  45 H45            3.7744    -4.3898     1.4485 H       
  46 H46            0.8134    -3.7951     4.6221 H       
  47 H47            2.1577    -4.5597     5.5081 H       
  48 H48            3.8053    -3.5691     4.0711 H       
  49 H49            2.6528    -2.2587     4.4276 H       
  50 H50            1.1753    -9.2129     1.7043 H       
  51 H51            1.5441    -9.4445     3.4302 H       
  52 H52           -0.0908    -8.9518     2.9278 H       
@<TRIPOS>BOND
   1    1    2 2
   2    1    3 1
   3    1    6 1
   4    2    5 1
   5    3    4 2
   6    3   31 1
   7    4    5 1
   8    4   12 1
   9    5   18 1
  10    6    7 ar
  11    6   11 ar
  12    7    8 ar
  13    7   32 1
  14    8    9 ar
  15    8   33 1
  16    9   10 ar
  17    9   34 1
  18   10   11 ar
  19   10   35 1
  20   11   36 1
  21   12   13 ar
  22   12   17 ar
  23   13   14 ar
  24   13   37 1
  25   14   15 ar
  26   14   38 1
  27   15   16 ar
  28   15   39 1
  29   16   17 ar
  30   16   40 1
  31   17   41 1
  32   18   19 1
  33   18   42 1
  34   18   43 1
  35   19   20 am
  36   19   26 2
  37   20   21 1
  38   20   25 1
  39   21   22 1
  40   21   44 1
  41   21   45 1
  42   22   23 2
  43   22   27 1
  44   23   24 1
  45   23   29 1
  46   24   25 1
  47   24   46 1
  48   24   47 1
  49   25   48 1
  50   25   49 1
  51   27   28 1
  52   28   29 2
  53   28   30 1
  54   30   50 1
  55   30   51 1
  56   30   52 1

#	End of record

