#	Name: ASD01940306
#	Creating user name:	WinNT
#	Creation time:	15. 06. 2019 20:12

#	Modifying user name:	WinNT
#	Modification time:	15. 06. 2019 20:12

#	Program:	/corina/corina34_cracker 3.40 0067  02.08.2006

@<TRIPOS>MOLECULE
ASD01940306
  54   56    0    0    0
SMALL
NO_CHARGES


@<TRIPOS>ATOM
   1 C1            -1.0902    10.7789    -2.5800 C.3     
   2 C2            -1.7052    12.1694    -2.7505 C.3     
   3 C3            -2.5903    10.9842    -2.3595 C.3     
   4 S4            -0.5770     9.9002    -4.0818 S.o2    
   5 O5             0.8036     9.5697    -4.0188 O.2     
   6 O6            -1.5471     8.9283    -4.4470 O.2     
   7 N7            -0.6698    11.0400    -5.2795 N.am    
   8 C8            -0.2211    10.5374    -1.3443 C.3     
   9 C9            -0.2157     9.0448    -1.0082 C.3     
  10 C10            1.1864     8.4760    -1.2352 C.3     
  11 C11           -0.6141     8.8502     0.4561 C.3     
  12 O12           -0.6099     7.4561     0.7697 O.3     
  13 O13            1.4432     7.4459    -0.2786 O.3     
  14 C14            0.4800    11.7480    -5.6658 C.ar    
  15 C15            0.5429    12.3445    -6.9226 C.ar    
  16 C16            1.6821    13.0441    -7.3002 C.ar    
  17 C17            2.7532    13.1477    -6.4275 C.ar    
  18 C18            2.6920    12.5547    -5.1779 C.ar    
  19 C19            1.5558    11.8597    -4.7922 C.ar    
  20 O20            1.4959    11.2830    -3.5614 O.3     
  21 C21            2.0680    12.0129    -2.4743 C.3     
  22 N22           -0.5410    12.2388    -7.8052 N.pl3   
  23 C23           -1.1938    13.3919    -8.2520 C.ar    
  24 C24           -2.4023    13.7756    -7.6788 C.ar    
  25 C25           -3.0444    14.9161    -8.1234 C.ar    
  26 C26           -2.4860    15.6750    -9.1371 C.ar    
  27 C27           -1.2851    15.2955    -9.7081 C.ar    
  28 C28           -0.6349    14.1597    -9.2646 C.ar    
  29 I29           -3.4628    17.4025    -9.8085 I       
  30 F30           -2.9474    13.0344    -6.6895 F       
  31 F31            3.8600    13.8286    -6.7969 F       
  32 F32            1.7458    13.6234    -8.5191 F       
  33 H33           -1.4906    12.9123    -1.9822 H       
  34 H34           -1.8014    12.5563    -3.7649 H       
  35 H35           -3.2687    10.5914    -3.1168 H       
  36 H36           -2.9579    10.9473    -1.3340 H       
  37 H37           -1.5183    11.2187    -5.7142 H       
  38 H38            0.7977    10.8680    -1.5464 H       
  39 H39           -0.6245    11.0982    -0.5011 H       
  40 H40           -0.9269     8.5252    -1.6504 H       
  41 H41            1.2520     8.0619    -2.2414 H       
  42 H42            1.9238     9.2704    -1.1205 H       
  43 H43            0.0975     9.3692     1.0983 H       
  44 H44           -1.6127     9.2561     0.6180 H       
  45 H45           -0.8536     7.2579     1.6843 H       
  46 H46            2.3424     7.0919    -0.3136 H       
  47 H47            3.5291    12.6374    -4.5006 H       
  48 H48            2.6197    11.3299    -1.8284 H       
  49 H49            2.7462    12.7724    -2.8636 H       
  50 H50            1.2747    12.4934    -1.9018 H       
  51 H51           -0.8382    11.3658    -8.1059 H       
  52 H52           -3.9826    15.2150    -7.6797 H       
  53 H53           -0.8526    15.8900   -10.4992 H       
  54 H54            0.3053    13.8672    -9.7082 H       
@<TRIPOS>BOND
   1    1    2 1
   2    1    3 1
   3    1    4 1
   4    1    8 1
   5    2    3 1
   6    2   33 1
   7    2   34 1
   8    3   35 1
   9    3   36 1
  10    4    5 2
  11    4    6 2
  12    4    7 am
  13    7   14 1
  14    7   37 1
  15    8    9 1
  16    8   38 1
  17    8   39 1
  18    9   10 1
  19    9   11 1
  20    9   40 1
  21   10   13 1
  22   10   41 1
  23   10   42 1
  24   11   12 1
  25   11   43 1
  26   11   44 1
  27   12   45 1
  28   13   46 1
  29   14   15 ar
  30   14   19 ar
  31   15   16 ar
  32   15   22 1
  33   16   17 ar
  34   16   32 1
  35   17   18 ar
  36   17   31 1
  37   18   19 ar
  38   18   47 1
  39   19   20 1
  40   20   21 1
  41   21   48 1
  42   21   49 1
  43   21   50 1
  44   22   23 1
  45   22   51 1
  46   23   24 ar
  47   23   28 ar
  48   24   25 ar
  49   24   30 1
  50   25   26 ar
  51   25   52 1
  52   26   27 ar
  53   26   29 1
  54   27   28 ar
  55   27   53 1
  56   28   54 1

#	End of record

