#	Name: ASD00111062
#	Creating user name:	WinNT
#	Creation time:	15. 06. 2019 18:30

#	Modifying user name:	WinNT
#	Modification time:	15. 06. 2019 18:30

#	Program:	/corina/corina34_cracker 3.40 0067  02.08.2006

@<TRIPOS>MOLECULE
ASD00111062
  36   37    0    0    0
SMALL
NO_CHARGES


@<TRIPOS>ATOM
   1 N1             0.2936     1.5590     0.0548 N.am    
   2 C2             0.1638     0.1069    -0.0171 C.3     
   3 C3             0.6302    -0.5204     1.3012 C.3     
   4 C4             2.1404    -0.6031     1.2904 C.ar    
   5 C5             2.8973     0.5384     1.3934 C.ar    
   6 C6             2.2275     1.8888     1.5185 C.3     
   7 C7             1.5785     2.2409     0.1754 C.3     
   8 C8             4.2782     0.4631     1.3845 C.ar    
   9 C9             4.8989    -0.7728     1.2708 C.ar    
  10 C10            4.1324    -1.9248     1.1664 C.ar    
  11 C11            2.7527    -1.8393     1.1764 C.ar    
  12 C12            0.1721     0.3491     2.4738 C.3     
  13 O13            6.2555    -0.8547     1.2612 O.3     
  14 C14            6.9803     0.3718     1.3720 C.3     
  15 I15            5.0656    -3.7925     0.9938 I       
  16 C16           -0.8267     2.3065     0.0019 C.2     
  17 O17           -1.9093     1.7699    -0.1030 O.2     
  18 C18           -0.7341     3.8089     0.0732 C.3     
  19 F19           -2.0182     4.3593    -0.0005 F       
  20 F20           -0.1353     4.1825     1.2812 F       
  21 F21            0.0371     4.2798    -0.9948 F       
  22 H22           -0.8791    -0.1555    -0.1945 H       
  23 H23            0.7763    -0.2717    -0.8354 H       
  24 H24            0.2098    -1.5213     1.3988 H       
  25 H25            1.4629     1.8473     2.2943 H       
  26 H26            2.9711     2.6435     1.7746 H       
  27 H27            2.2334     1.9263    -0.6372 H       
  28 H28            1.4238     3.3183     0.1189 H       
  29 H29            4.8709     1.3622     1.4654 H       
  30 H30            2.1541    -2.7346     1.0957 H       
  31 H31           -0.7893    -0.0115     2.8396 H       
  32 H32            0.9090     0.2958     3.2753 H       
  33 H33            0.0703     1.3823     2.1420 H       
  34 H34            8.0502     0.1647     1.3515 H       
  35 H35            6.7204     1.0240     0.5383 H       
  36 H36            6.7231     0.8623     2.3109 H       
@<TRIPOS>BOND
   1    1    2 1
   2    1    7 1
   3    1   16 am
   4    2    3 1
   5    2   22 1
   6    2   23 1
   7    3    4 1
   8    3   12 1
   9    3   24 1
  10    4    5 ar
  11    4   11 ar
  12    5    6 1
  13    5    8 ar
  14    6    7 1
  15    6   25 1
  16    6   26 1
  17    7   27 1
  18    7   28 1
  19    8    9 ar
  20    8   29 1
  21    9   10 ar
  22    9   13 1
  23   10   11 ar
  24   10   15 1
  25   11   30 1
  26   12   31 1
  27   12   32 1
  28   12   33 1
  29   13   14 1
  30   14   34 1
  31   14   35 1
  32   14   36 1
  33   16   17 2
  34   16   18 1
  35   18   19 1
  36   18   20 1
  37   18   21 1

#	End of record

