#	Name: ASD01816403
#	Creating user name:	WinNT
#	Creation time:	15. 06. 2019 19:35

#	Modifying user name:	WinNT
#	Modification time:	15. 06. 2019 19:35

#	Program:	/corina/corina34_cracker 3.40 0067  02.08.2006

@<TRIPOS>MOLECULE
ASD01816403
  54   59    0    0    0
SMALL
NO_CHARGES


@<TRIPOS>ATOM
   1 C1            -0.0167     1.3813     0.0096 C.ar    
   2 C2             0.0021    -0.0041     0.0020 C.ar    
   3 C3             1.1984    -0.6909    -0.0131 C.ar    
   4 C4             2.4015     0.0059    -0.0209 C.ar    
   5 C5             2.3790     1.4106    -0.0132 C.ar    
   6 C6             1.1663     2.0916     0.0022 C.ar    
   7 N7             3.6053    -0.6772    -0.0356 N.pl3   
   8 C8             4.7970    -0.0586    -0.0433 C.2     
   9 C9             4.9000     1.3103    -0.0373 C.2     
  10 C10            3.6670     2.1301    -0.0217 C.2     
  11 C11            5.9971     2.2729    -0.0432 C.2     
  12 N12            5.4245     3.4960    -0.0324 N.am    
  13 N13            4.0323     3.3799    -0.0195 N.2     
  14 O14            7.1914     2.0229    -0.0552 O.2     
  15 C15            3.5779    -2.1419    -0.0427 C.3     
  16 C16            3.5552    -2.6371    -1.4659 C.ar    
  17 C17            4.7429    -2.8861    -2.1288 C.ar    
  18 C18            4.7252    -3.3395    -3.4333 C.ar    
  19 C19            3.5135    -3.5456    -4.0788 C.ar    
  20 C20            2.3226    -3.2951    -3.4104 C.ar    
  21 C21            2.3466    -2.8468    -2.1042 C.ar    
  22 N22            3.4923    -4.0053    -5.4030 N.pl3   
  23 C23            2.3873    -4.2463    -6.1443 C.2     
  24 C24            2.7937    -4.6753    -7.3616 C.2     
  25 C25            4.1927    -4.6976    -7.3656 C.2     
  26 N26            4.6123    -4.2906    -6.1946 N.2     
  27 C27            6.1264     4.7081    -0.0338 C.ar    
  28 C28            7.0619     4.9687    -1.0263 C.ar    
  29 C29            7.7530     6.1645    -1.0257 C.ar    
  30 C30            7.5134     7.1033    -0.0365 C.ar    
  31 C31            6.5810     6.8452     0.9547 C.ar    
  32 C32            5.8835     5.6536     0.9544 C.ar    
  33 F33            8.1904     8.2724    -0.0378 F       
  34 C34            4.8687     5.3735     2.0328 C.3     
  35 H35           -0.9602     1.9068     0.0170 H       
  36 H36           -0.9288    -0.5516     0.0083 H       
  37 H37            1.2004    -1.7709    -0.0186 H       
  38 H38            1.1506     3.1715     0.0077 H       
  39 H39            5.6983    -0.6536    -0.0540 H       
  40 H40            4.4657    -2.5244     0.4609 H       
  41 H41            2.6861    -2.4912     0.4778 H       
  42 H42            5.6852    -2.7256    -1.6262 H       
  43 H43            5.6532    -3.5332    -3.9509 H       
  44 H44            1.3785    -3.4542    -3.9101 H       
  45 H45            1.4206    -2.6517    -1.5838 H       
  46 H46            1.3642    -4.1197    -5.8223 H       
  47 H47            2.1515    -4.9517    -8.1848 H       
  48 H48            4.8186    -4.9951    -8.1939 H       
  49 H49            7.2494     4.2366    -1.7978 H       
  50 H50            8.4810     6.3674    -1.7973 H       
  51 H51            6.3961     7.5785     1.7258 H       
  52 H52            3.8910     5.7352     1.7144 H       
  53 H53            4.8177     4.2999     2.2137 H       
  54 H54            5.1635     5.8830     2.9502 H       
@<TRIPOS>BOND
   1    1    2 ar
   2    1    6 ar
   3    1   35 1
   4    2    3 ar
   5    2   36 1
   6    3    4 ar
   7    3   37 1
   8    4    5 ar
   9    4    7 1
  10    5    6 ar
  11    5   10 1
  12    6   38 1
  13    7    8 1
  14    7   15 1
  15    8    9 2
  16    8   39 1
  17    9   10 1
  18    9   11 1
  19   10   13 2
  20   11   12 am
  21   11   14 2
  22   12   13 1
  23   12   27 1
  24   15   16 1
  25   15   40 1
  26   15   41 1
  27   16   17 ar
  28   16   21 ar
  29   17   18 ar
  30   17   42 1
  31   18   19 ar
  32   18   43 1
  33   19   20 ar
  34   19   22 1
  35   20   21 ar
  36   20   44 1
  37   21   45 1
  38   22   23 1
  39   22   26 1
  40   23   24 2
  41   23   46 1
  42   24   25 1
  43   24   47 1
  44   25   26 2
  45   25   48 1
  46   27   28 ar
  47   27   32 ar
  48   28   29 ar
  49   28   49 1
  50   29   30 ar
  51   29   50 1
  52   30   31 ar
  53   30   33 1
  54   31   32 ar
  55   31   51 1
  56   32   34 1
  57   34   52 1
  58   34   53 1
  59   34   54 1

#	End of record

