#	Name: ASD03082419
#	Creating user name:	WinNT
#	Creation time:	15. 06. 2019 20:27

#	Modifying user name:	WinNT
#	Modification time:	15. 06. 2019 20:27

#	Program:	/corina/corina34_cracker 3.40 0067  02.08.2006

@<TRIPOS>MOLECULE
ASD03082419
  56   59    0    0    0
SMALL
NO_CHARGES


@<TRIPOS>ATOM
   1 C1             1.2083     3.4994    -0.3989 C.ar    
   2 C2             2.3449     4.2047    -0.0255 C.ar    
   3 C3             2.3067     5.5833     0.0532 C.ar    
   4 C4             1.1387     6.2630    -0.2392 C.ar    
   5 C5             0.0030     5.5653    -0.6118 C.ar    
   6 Cl6           -1.4610     6.4232    -0.9785 Cl      
   7 N7             1.2443     2.1036    -0.4788 N.pl3   
   8 C8             2.4634     1.4277    -0.3632 C.2     
   9 C9             2.6306     0.0332    -0.3080 C.2     
  10 N10            3.6492     1.9859    -0.2932 N.2     
  11 N11            4.6063     0.9686    -0.1863 N.pl3   
  12 C12            3.9534    -0.2229    -0.1978 C.2     
  13 C13            5.9895     1.1475    -0.0889 C.ar    
  14 C14            6.8697     0.2702    -0.7190 C.ar    
  15 C15            6.5233     2.2115     0.6361 C.ar    
  16 C16            7.8938     2.3535     0.7076 C.ar    
  17 N17            8.6950     1.4983     0.1009 N.ar    
  18 C18            8.2282     0.4818    -0.5989 C.ar    
  19 C19            8.4832     3.5000     1.4881 C.3     
  20 H20            8.9179    -0.1956    -1.0803 H       
  21 C21            4.5897    -1.5857    -0.1040 C.3     
  22 C22            4.7009    -2.1941    -1.5034 C.3     
  23 C23            0.0327     4.1839    -0.6875 C.ar    
  24 C24            5.2684    -3.6112    -1.3998 C.3     
  25 O25            5.3722    -4.1794    -2.7069 O.3     
  26 C26            5.8945    -5.5094    -2.7227 C.3     
  27 C27            5.9599    -6.0066    -4.1438 C.ar    
  28 C28            7.0998    -5.7976    -4.8974 C.ar    
  29 C29            7.1597    -6.2536    -6.2010 C.ar    
  30 C30            6.0800    -6.9191    -6.7508 C.ar    
  31 C31            4.9405    -7.1289    -5.9969 C.ar    
  32 C32            4.8822    -6.6767    -4.6919 C.ar    
  33 F33           -1.0754     3.5021    -1.0516 F       
  34 H34            3.2580     3.6755     0.2036 H       
  35 H35            3.1909     6.1312     0.3440 H       
  36 H36            1.1124     7.3409    -0.1762 H       
  37 H37            0.4238     1.6043    -0.6144 H       
  38 H38            1.8417    -0.7034    -0.3462 H       
  39 H39            6.4942    -0.5639    -1.2930 H       
  40 H40            5.8732     2.9152     1.1347 H       
  41 H41            8.6417     3.1925     2.5217 H       
  42 H42            9.4361     3.7894     1.0449 H       
  43 H43            7.7982     4.3475     1.4621 H       
  44 H44            5.5844    -1.4930     0.3320 H       
  45 H45            3.9760    -2.2307     0.5249 H       
  46 H46            3.7132    -2.2310    -1.9631 H       
  47 H47            5.3634    -1.5811    -2.1145 H       
  48 H48            6.2560    -3.5743    -0.9402 H       
  49 H49            4.6058    -4.2242    -0.7888 H       
  50 H50            6.8951    -5.5120    -2.2904 H       
  51 H51            5.2450    -6.1618    -2.1390 H       
  52 H52            7.9433    -5.2777    -4.4678 H       
  53 H53            8.0500    -6.0897    -6.7900 H       
  54 H54            6.1266    -7.2748    -7.7695 H       
  55 H55            4.0968    -7.6485    -6.4265 H       
  56 H56            3.9919    -6.8406    -4.1029 H       
@<TRIPOS>BOND
   1    1    2 ar
   2    1    7 1
   3    1   23 ar
   4    2    3 ar
   5    2   34 1
   6    3    4 ar
   7    3   35 1
   8    4    5 ar
   9    4   36 1
  10    5   23 ar
  11    5    6 1
  12    7    8 1
  13    7   37 1
  14    8    9 1
  15    8   10 2
  16    9   12 2
  17    9   38 1
  18   10   11 1
  19   11   12 1
  20   11   13 1
  21   12   21 1
  22   13   14 ar
  23   13   15 ar
  24   14   18 ar
  25   14   39 1
  26   15   16 ar
  27   15   40 1
  28   16   17 ar
  29   16   19 1
  30   17   18 ar
  31   18   20 1
  32   19   41 1
  33   19   42 1
  34   19   43 1
  35   21   22 1
  36   21   44 1
  37   21   45 1
  38   22   24 1
  39   22   46 1
  40   22   47 1
  41   23   33 1
  42   24   25 1
  43   24   48 1
  44   24   49 1
  45   25   26 1
  46   26   27 1
  47   26   50 1
  48   26   51 1
  49   27   28 ar
  50   27   32 ar
  51   28   29 ar
  52   28   52 1
  53   29   30 ar
  54   29   53 1
  55   30   31 ar
  56   30   54 1
  57   31   32 ar
  58   31   55 1
  59   32   56 1

#	End of record

