#	Name: ASD01000039
#	Creating user name:	WinNT
#	Creation time:	15. 06. 2019 18:54

#	Modifying user name:	WinNT
#	Modification time:	15. 06. 2019 18:54

#	Program:	/corina/corina34_cracker 3.40 0067  02.08.2006

@<TRIPOS>MOLECULE
ASD01000039
  45   47    0    0    0
SMALL
NO_CHARGES


@<TRIPOS>ATOM
   1 C1            -0.0986     1.3988     0.3923 C.3     
   2 C2             3.9390    -2.5559     1.7306 C.ar    
   3 C3             2.8086    -2.0426     1.1121 C.ar    
   4 C4             2.2058    -2.7433     0.0852 C.ar    
   5 C5             2.7284    -3.9563    -0.3257 C.ar    
   6 C6             3.8555    -4.4705     0.2906 C.ar    
   7 C7             4.4644    -3.7705     1.3138 C.ar    
   8 C8             0.9779    -2.1858    -0.5875 C.3     
   9 N9            -0.1949    -2.9035    -0.0596 N.am    
  10 C10            0.9935    -0.6807    -0.4161 C.2     
  11 C11           -0.0595    -0.0971     0.2007 C.2     
  12 N12           -1.1010    -0.8544     0.6568 N.am    
  13 C13           -1.1673    -2.1844     0.5350 C.2     
  14 C14            2.0805     0.0616    -0.8903 C.2     
  15 S15           -2.5368    -3.0028     1.1560 S.2     
  16 O16            2.9985    -0.5064    -1.4478 O.2     
  17 O17            4.5337    -1.8680     2.7408 O.3     
  18 Br18           1.9011    -4.9134    -1.7311 Br      
  19 C19            2.1256     1.5578    -0.7163 C.3     
  20 C20            1.3273     1.9357     0.5358 C.3     
  21 C21           -2.8421     0.6760     5.0237 C.3     
  22 C22           -3.1075     0.6126     3.5183 C.3     
  23 C23           -1.9469    -0.1044     2.8256 C.3     
  24 C24           -2.2123    -0.1678     1.3201 C.3     
  25 H25           -0.5760     1.8629    -0.4707 H       
  26 H26           -0.6674     1.6347     1.2917 H       
  27 H27            2.3996    -1.0960     1.4333 H       
  28 H28            4.2615    -5.4182    -0.0312 H       
  29 H29            5.3443    -4.1721     1.7943 H       
  30 H30            1.0537    -2.4031    -1.6530 H       
  31 H31           -0.2655    -3.8678    -0.1377 H       
  32 H32            4.1948    -2.0879     3.6193 H       
  33 H33            3.1603     1.8811    -0.6021 H       
  34 H34            1.6846     2.0403    -1.5885 H       
  35 H35            1.3005     3.0205     0.6384 H       
  36 H36            1.7968     1.4950     1.4152 H       
  37 H37           -2.7517    -0.3356     5.4197 H       
  38 H38           -1.9166     1.2218     5.2069 H       
  39 H39           -3.6689     1.1868     5.5172 H       
  40 H40           -4.0330     0.0667     3.3351 H       
  41 H41           -3.1979     1.6241     3.1224 H       
  42 H42           -1.0214     0.4414     3.0087 H       
  43 H43           -1.8565    -1.1160     3.2215 H       
  44 H44           -2.3026     0.8437     0.9242 H       
  45 H45           -3.1378    -0.7137     1.1370 H       
@<TRIPOS>BOND
   1    1   11 1
   2    1   20 1
   3    1   25 1
   4    1   26 1
   5    2    3 ar
   6    2   17 1
   7    2    7 ar
   8    3    4 ar
   9    3   27 1
  10    4    5 ar
  11    4    8 1
  12    5    6 ar
  13    5   18 1
  14    6    7 ar
  15    6   28 1
  16    7   29 1
  17    8    9 1
  18    8   10 1
  19    8   30 1
  20    9   13 am
  21    9   31 1
  22   10   11 2
  23   10   14 1
  24   11   12 1
  25   12   24 1
  26   12   13 am
  27   13   15 2
  28   14   16 2
  29   14   19 1
  30   17   32 1
  31   19   20 1
  32   19   33 1
  33   19   34 1
  34   20   35 1
  35   20   36 1
  36   21   22 1
  37   21   37 1
  38   21   38 1
  39   21   39 1
  40   22   23 1
  41   22   40 1
  42   22   41 1
  43   23   24 1
  44   23   42 1
  45   23   43 1
  46   24   44 1
  47   24   45 1

#	End of record

