#	Name: ASD01910679
#	Creating user name:	WinNT
#	Creation time:	15. 06. 2019 19:56

#	Modifying user name:	WinNT
#	Modification time:	15. 06. 2019 19:56

#	Program:	/corina/corina34_cracker 3.40 0067  02.08.2006

@<TRIPOS>MOLECULE
ASD01910679
  60   63    0    0    0
SMALL
NO_CHARGES


@<TRIPOS>ATOM
   1 C1            -0.0167     1.3797     0.0096 C.ar    
   2 C2             0.0021    -0.0041     0.0020 C.ar    
   3 C3             1.2058    -0.6866    -0.0127 C.ar    
   4 C4             2.3967     0.0088    -0.0198 C.ar    
   5 C5             2.3858     1.4064    -0.0127 C.ar    
   6 C6             1.1661     2.0888     0.0021 C.ar    
   7 C7             3.6182     2.1357    -0.0195 C.1     
   8 C8             4.6285     2.7335    -0.0252 C.1     
   9 C9             5.8609     3.4628    -0.0321 C.ar    
  10 C10            5.8452     4.8624    -0.0249 C.ar    
  11 C11            7.0210     5.5549    -0.0307 C.ar    
  12 C12            8.2385     4.8661    -0.0297 C.ar    
  13 C13            8.2565     3.4703    -0.0444 C.ar    
  14 C14            7.0800     2.7753    -0.0401 C.ar    
  15 C15            7.0232     7.0610    -0.0587 C.3     
  16 C16            8.2203     7.5977     0.7219 C.3     
  17 N17            9.4581     6.9535     0.2890 N.am    
  18 C18            9.4970     5.6374     0.0082 C.2     
  19 O19           10.5594     5.0886    -0.2120 O.2     
  20 C20           10.6783     7.7537     0.1581 C.3     
  21 C21           11.4249     7.7489     1.4671 C.2     
  22 N22           12.5854     8.4243     1.5834 N.am    
  23 O23           10.9815     7.1373     2.4159 O.2     
  24 C24           13.3113     8.4197     2.8559 C.3     
  25 C25           14.5856     9.2554     2.7193 C.3     
  26 N26           15.3134     9.2507     3.9953 N.3     
  27 C27           16.6501     9.8389     3.8408 C.3     
  28 C28           17.3211     9.9508     5.2117 C.3     
  29 C29           17.4254     8.5577     5.8387 C.3     
  30 C30           16.0248     7.9478     5.9438 C.3     
  31 C31           15.3914     7.8940     4.5517 C.3     
  32 H32           -0.9600     1.9055     0.0169 H       
  33 H33           -0.9274    -0.5541     0.0079 H       
  34 H34            1.2127    -1.7666    -0.0182 H       
  35 H35            3.3354    -0.5251    -0.0306 H       
  36 H36            1.1499     3.1687     0.0074 H       
  37 H37            4.9046     5.3931    -0.0151 H       
  38 H38            9.1979     2.9412    -0.0549 H       
  39 H39            7.0908     1.6954    -0.0510 H       
  40 H40            7.0823     7.4034    -1.0918 H       
  41 H41            6.1023     7.4323     0.3911 H       
  42 H42            8.3004     8.6726     0.5602 H       
  43 H43            8.0697     7.4065     1.7844 H       
  44 H44           11.3098     7.3284    -0.6220 H       
  45 H45           10.4146     8.7778    -0.1060 H       
  46 H46           12.9401     8.9135     0.8245 H       
  47 H47           12.6798     8.8450     3.6360 H       
  48 H48           13.5750     7.3956     3.1201 H       
  49 H49           15.2171     8.8301     1.9392 H       
  50 H50           14.3219    10.2795     2.4551 H       
  51 H51           17.2534     9.2042     3.1918 H       
  52 H52           16.5614    10.8309     3.3979 H       
  53 H53           18.3192    10.3729     5.0949 H       
  54 H54           16.7254    10.5965     5.8569 H       
  55 H55           18.0531     7.9229     5.2134 H       
  56 H56           17.8634     8.6379     6.8336 H       
  57 H57           16.0968     6.9389     6.3501 H       
  58 H58           15.4088     8.5621     6.6005 H       
  59 H59           14.3885     7.4734     4.6251 H       
  60 H60           16.0006     7.2684     3.8994 H       
@<TRIPOS>BOND
   1    1    2 ar
   2    1    6 ar
   3    1   32 1
   4    2    3 ar
   5    2   33 1
   6    3    4 ar
   7    3   34 1
   8    4    5 ar
   9    4   35 1
  10    5    6 ar
  11    5    7 1
  12    6   36 1
  13    7    8 3
  14    8    9 1
  15    9   10 ar
  16    9   14 ar
  17   10   11 ar
  18   10   37 1
  19   11   12 ar
  20   11   15 1
  21   12   13 ar
  22   12   18 1
  23   13   14 ar
  24   13   38 1
  25   14   39 1
  26   15   16 1
  27   15   40 1
  28   15   41 1
  29   16   17 1
  30   16   42 1
  31   16   43 1
  32   17   18 am
  33   17   20 1
  34   18   19 2
  35   20   21 1
  36   20   44 1
  37   20   45 1
  38   21   22 am
  39   21   23 2
  40   22   24 1
  41   22   46 1
  42   24   25 1
  43   24   47 1
  44   24   48 1
  45   25   26 1
  46   25   49 1
  47   25   50 1
  48   26   27 1
  49   26   31 1
  50   27   28 1
  51   27   51 1
  52   27   52 1
  53   28   29 1
  54   28   53 1
  55   28   54 1
  56   29   30 1
  57   29   55 1
  58   29   56 1
  59   30   31 1
  60   30   57 1
  61   30   58 1
  62   31   59 1
  63   31   60 1

#	End of record

