#	Name: ASD01200215
#	Creating user name:	WinNT
#	Creation time:	15. 06. 2019 19:08

#	Modifying user name:	WinNT
#	Modification time:	15. 06. 2019 19:08

#	Program:	/corina/corina34_cracker 3.40 0067  02.08.2006

@<TRIPOS>MOLECULE
ASD01200215
  42   43    0    0    0
SMALL
NO_CHARGES


@<TRIPOS>ATOM
   1 C1            -0.0167     1.3791     0.0096 C.ar    
   2 C2             0.0021    -0.0041     0.0020 C.ar    
   3 C3            -1.1857    -0.7112     0.0100 C.ar    
   4 C4            -2.3919    -0.0365     0.0257 C.ar    
   5 C5            -2.4113     1.3460     0.0333 C.ar    
   6 C6            -1.2245     2.0540     0.0306 C.ar    
   7 C7            -1.1654    -2.2180     0.0013 C.3     
   8 C8            -1.8671    -2.7448     1.2547 C.3     
   9 C9            -1.8815    -2.7229    -1.2249 C.2     
  10 N10           -1.4379    -2.3842    -2.4517 N.am    
  11 O11           -2.8565    -3.4338    -1.1078 O.2     
  12 Cl12           1.4746     2.2678     0.0002 Cl      
  13 C13           -1.0698    -2.3365     2.4951 C.3     
  14 C14           -2.0783    -2.8357    -3.5482 C.2     
  15 N15           -1.6347    -2.4969    -4.7750 N.am    
  16 O16           -3.0558    -3.5483    -3.4309 O.2     
  17 C17           -1.8274    -2.7510     3.7687 C.3     
  18 C18           -0.9107    -3.7330     4.5269 C.3     
  19 C19            0.5132    -3.3887     4.0240 C.3     
  20 C20            0.2809    -3.0812     2.5239 C.3     
  21 C21           -2.3307    -2.9877    -5.9670 C.3     
  22 H22            0.9445    -0.5314    -0.0105 H       
  23 H23           -3.3197    -0.5894     0.0316 H       
  24 H24           -3.3541     1.8727     0.0455 H       
  25 H25           -1.2398     3.1339     0.0365 H       
  26 H26           -0.1330    -2.5675    -0.0112 H       
  27 H27           -2.8708    -2.3240     1.3132 H       
  28 H28           -1.9311    -3.8318     1.2055 H       
  29 H29           -0.6577    -1.8154    -2.5453 H       
  30 H30           -0.9031    -1.2594     2.4936 H       
  31 H31           -0.8545    -1.9282    -4.8687 H       
  32 H32           -2.0277    -1.8750     4.3857 H       
  33 H33           -2.7631    -3.2430     3.5030 H       
  34 H34           -0.9850    -3.5713     5.6023 H       
  35 H35           -1.1650    -4.7630     4.2766 H       
  36 H36            0.9045    -2.5130     4.5418 H       
  37 H37            1.1821    -4.2409     4.1446 H       
  38 H38            0.2190    -4.0059     1.9501 H       
  39 H39            1.0762    -2.4439     2.1375 H       
  40 H40           -2.3161    -4.0776    -5.9733 H       
  41 H41           -3.3631    -2.6383    -5.9545 H       
  42 H42           -1.8309    -2.6124    -6.8600 H       
@<TRIPOS>BOND
   1    1    2 ar
   2    1   12 1
   3    1    6 ar
   4    2    3 ar
   5    2   22 1
   6    3    4 ar
   7    3    7 1
   8    4    5 ar
   9    4   23 1
  10    5    6 ar
  11    5   24 1
  12    6   25 1
  13    7    8 1
  14    7    9 1
  15    7   26 1
  16    8   13 1
  17    8   27 1
  18    8   28 1
  19    9   10 am
  20    9   11 2
  21   10   14 am
  22   10   29 1
  23   13   17 1
  24   13   20 1
  25   13   30 1
  26   14   15 am
  27   14   16 2
  28   15   21 1
  29   15   31 1
  30   17   18 1
  31   17   32 1
  32   17   33 1
  33   18   19 1
  34   18   34 1
  35   18   35 1
  36   19   20 1
  37   19   36 1
  38   19   37 1
  39   20   38 1
  40   20   39 1
  41   21   40 1
  42   21   41 1
  43   21   42 1

#	End of record

