#	Name: ASD05060118
#	Creating user name:	WinNT
#	Creation time:	15. 06. 2019 20:56

#	Modifying user name:	WinNT
#	Modification time:	15. 06. 2019 20:56

#	Program:	/corina/corina34_cracker 3.40 0067  02.08.2006

@<TRIPOS>MOLECULE
ASD05060118
  76   81    0    0    0
SMALL
NO_CHARGES


@<TRIPOS>ATOM
   1 C1            -0.1610     1.4976    -1.1045 C.ar    
   2 C2            -0.1350     0.1189    -0.9940 C.ar    
   3 C3             1.0588    -0.5345    -0.7131 C.ar    
   4 C4             2.2349     0.1829    -0.5366 C.ar    
   5 C5             2.2310     1.5628    -0.6404 C.ar    
   6 C6             1.0257     2.2275    -0.9326 C.ar    
   7 C7             1.0303     3.6892    -1.0580 C.2     
   8 O8             3.3779     2.2578    -0.4553 O.3     
   9 C9             3.4849     3.5653    -1.0180 C.3     
  10 C10            2.2789     4.4081    -0.5795 C.3     
  11 C11            4.7557     4.2172    -0.5371 C.ar    
  12 C12            5.3270     3.8190     0.6566 C.ar    
  13 C13            6.4922     4.4144     1.0999 C.ar    
  14 C14            7.0918     5.4144     0.3470 C.ar    
  15 C15            6.5207     5.8155    -0.8506 C.ar    
  16 C16            5.3542     5.2127    -1.2960 C.ar    
  17 C17            7.1694     6.9014    -1.6698 C.3     
  18 C18            8.5303     6.4137    -2.1717 C.3     
  19 C19            9.2812     7.6076    -2.7749 C.3     
  20 C20            9.6246     8.5832    -1.6472 C.3     
  21 C21            8.4064     8.8625    -0.8165 C.2     
  22 C22            7.3402     8.1285    -0.8231 C.2     
  23 C23           10.5490     7.1282    -3.4336 C.ar    
  24 C24           11.5106     6.4746    -2.6866 C.ar    
  25 C25           12.6738     6.0335    -3.2877 C.ar    
  26 C26           12.8792     6.2459    -4.6438 C.ar    
  27 C27           11.9161     6.9012    -5.3952 C.ar    
  28 C28           10.7473     7.3383    -4.7907 C.ar    
  29 O29            0.0844     4.2927    -1.5209 O.2     
  30 O30           -1.3232     2.1388    -1.3825 O.3     
  31 O31            1.0755    -1.8872    -0.6096 O.3     
  32 O32            4.7949     5.6000    -2.4724 O.3     
  33 O33            8.2377     6.0000     0.7838 O.3     
  34 O34            9.7989     7.9761    -5.5259 O.3     
  35 O35           14.0237     5.8122    -5.2344 O.3     
  36 C36            8.4256    10.0728     0.0812 C.3     
  37 C37            8.3319     5.3551    -3.2257 C.2     
  38 O38            7.5552     5.5456    -4.1382 O.2     
  39 C39            9.0767     4.0960    -3.1485 C.ar    
  40 C40           10.0450     3.9103    -2.1521 C.ar    
  41 C41           10.7376     2.7371    -2.0826 C.ar    
  42 C42           10.4895     1.7167    -2.9976 C.ar    
  43 C43            9.5349     1.8827    -3.9905 C.ar    
  44 C44            8.8198     3.0652    -4.0703 C.ar    
  45 O45           11.1852     0.5547    -2.9177 O.3     
  46 O46            7.8812     3.2310    -5.0349 O.3     
  47 H47            8.6483     8.1051    -3.5098 H       
  48 H48            6.5349     7.1374    -2.5241 H       
  49 H49            3.5017     3.4930    -2.1054 H       
  50 H50           -1.0434    -0.4501    -1.1258 H       
  51 H51            3.1554    -0.3379    -0.3174 H       
  52 H52            2.3335     5.3983    -1.0320 H       
  53 H53            2.2634     4.4958     0.5068 H       
  54 H54            4.8617     3.0413     1.2440 H       
  55 H55            6.9366     4.1018     2.0333 H       
  56 H56            9.1023     6.0037    -1.3393 H       
  57 H57           10.4000     8.1482    -1.0166 H       
  58 H58            9.9914     9.5160    -2.0756 H       
  59 H59            6.5226     8.4175    -0.1794 H       
  60 H60           11.3528     6.3087    -1.6312 H       
  61 H61           13.4239     5.5233    -2.7018 H       
  62 H62           12.0743     7.0678    -6.4505 H       
  63 H63           -1.8305     2.3908    -0.5987 H       
  64 H64            1.2489    -2.3434    -1.4445 H       
  65 H65            4.1583     6.3227    -2.3862 H       
  66 H66            9.0442     5.5611     0.4803 H       
  67 H67            9.9092     8.9361    -5.5623 H       
  68 H68           13.9689     4.9127    -5.5851 H       
  69 H69            8.0420    10.9354    -0.4636 H       
  70 H70            7.8004     9.8873     0.9546 H       
  71 H71            9.4483    10.2711     0.4020 H       
  72 H72           10.2430     4.6968    -1.4390 H       
  73 H73           11.4833     2.5988    -1.3136 H       
  74 H74            9.3467     1.0884    -4.6976 H       
  75 H75           10.7700    -0.1146    -2.3566 H       
  76 H76            8.2237     3.6100    -5.8560 H       
@<TRIPOS>BOND
   1    1    2 ar
   2    1    6 ar
   3    1   30 1
   4    2    3 ar
   5    2   50 1
   6    3    4 ar
   7    3   31 1
   8    4    5 ar
   9    4   51 1
  10    5    6 ar
  11    5    8 1
  12    6    7 1
  13    7   10 1
  14    7   29 2
  15    8    9 1
  16    9   10 1
  17    9   11 1
  18    9   49 1
  19   10   52 1
  20   10   53 1
  21   11   12 ar
  22   11   16 ar
  23   12   13 ar
  24   12   54 1
  25   13   14 ar
  26   13   55 1
  27   14   15 ar
  28   14   33 1
  29   15   16 ar
  30   15   17 1
  31   16   32 1
  32   17   22 1
  33   17   48 1
  34   17   18 1
  35   18   19 1
  36   18   37 1
  37   18   56 1
  38   19   20 1
  39   19   23 1
  40   19   47 1
  41   20   21 1
  42   20   57 1
  43   20   58 1
  44   21   22 2
  45   21   36 1
  46   22   59 1
  47   23   24 ar
  48   23   28 ar
  49   24   25 ar
  50   24   60 1
  51   25   26 ar
  52   25   61 1
  53   26   27 ar
  54   26   35 1
  55   27   28 ar
  56   27   62 1
  57   28   34 1
  58   30   63 1
  59   31   64 1
  60   32   65 1
  61   33   66 1
  62   34   67 1
  63   35   68 1
  64   36   69 1
  65   36   70 1
  66   36   71 1
  67   37   38 2
  68   37   39 1
  69   39   40 ar
  70   39   44 ar
  71   40   41 ar
  72   40   72 1
  73   41   42 ar
  74   41   73 1
  75   42   43 ar
  76   42   45 1
  77   43   44 ar
  78   43   74 1
  79   44   46 1
  80   45   75 1
  81   46   76 1

#	End of record

