#	Name: ASD03390001
#	Creating user name:	WinNT
#	Creation time:	15. 06. 2019 20:40

#	Modifying user name:	WinNT
#	Modification time:	15. 06. 2019 20:40

#	Program:	/corina/corina34_cracker 3.40 0067  02.08.2006

@<TRIPOS>MOLECULE
ASD03390001
  33   34    0    0    0
SMALL
NO_CHARGES


@<TRIPOS>ATOM
   1 N1            -0.0285     1.3694    -0.1399 N.ar    
   2 C2            -0.0180     0.0510    -0.0205 C.ar    
   3 N3             1.1139    -0.6316     0.0698 N.ar    
   4 C4             2.2870    -0.0053     0.0424 C.ar    
   5 C5             2.3213     1.3798    -0.0779 C.ar    
   6 C6             1.1067     2.0635    -0.1722 C.ar    
   7 N7             3.4705    -0.7339     0.1271 N.pl3   
   8 C8             4.7187     0.0119     0.3608 C.3     
   9 C9             4.6694     1.2744    -0.5106 C.3     
  10 N10            3.5266     2.0969    -0.0999 N.3     
  11 N11            1.0841     3.4472    -0.2977 N.pl3   
  12 N12           -1.2235    -0.6336     0.0114 N.pl3   
  13 C13            5.9634     2.0708    -0.3310 C.3     
  14 C14            7.1412     1.2592    -0.8742 C.3     
  15 O15            6.1694     2.3382     1.0576 O.3     
  16 C16            8.4211     2.0924    -0.7806 C.3     
  17 O17            6.8945     0.9170    -2.2395 O.3     
  18 H18            4.5570     0.9909    -1.5570 H       
  19 H19            3.4727    -1.6996     0.0356 H       
  20 H20            4.7928     0.2900     1.4121 H       
  21 H21            5.5748    -0.6005     0.0775 H       
  22 H22            3.4471     2.9200    -0.6782 H       
  23 H23            1.9158     3.9458    -0.3204 H       
  24 H24            0.2366     3.9145    -0.3626 H       
  25 H25           -2.0597    -0.1464    -0.0534 H       
  26 H26           -1.2305    -1.5996     0.0986 H       
  27 H27            5.8892     3.0123    -0.8752 H       
  28 H28            7.2567     0.3485    -0.2866 H       
  29 H29            6.2449     1.5440     1.6041 H       
  30 H30            8.6093     2.3534     0.2608 H       
  31 H31            9.2601     1.5142    -1.1676 H       
  32 H32            8.3055     3.0031    -1.3682 H       
  33 H33            6.7812     1.6805    -2.8221 H       
@<TRIPOS>BOND
   1    1    2 ar
   2    1    6 ar
   3    2    3 ar
   4    2   12 1
   5    3    4 ar
   6    4    5 ar
   7    4    7 1
   8    5    6 ar
   9    5   10 1
  10    6   11 1
  11    7    8 1
  12    7   19 1
  13    8    9 1
  14    8   20 1
  15    8   21 1
  16    9   10 1
  17    9   13 1
  18    9   18 1
  19   10   22 1
  20   11   23 1
  21   11   24 1
  22   12   25 1
  23   12   26 1
  24   13   14 1
  25   13   15 1
  26   13   27 1
  27   14   16 1
  28   14   17 1
  29   14   28 1
  30   15   29 1
  31   16   30 1
  32   16   31 1
  33   16   32 1
  34   17   33 1

#	End of record

