#	Name: ASD08150214
#	Creating user name:	WinNT
#	Creation time:	15. 06. 2019 21:15

#	Modifying user name:	WinNT
#	Modification time:	15. 06. 2019 21:15

#	Program:	/corina/corina34_cracker 3.40 0067  02.08.2006

@<TRIPOS>MOLECULE
ASD08150214
  50   54    0    0    0
SMALL
NO_CHARGES


@<TRIPOS>ATOM
   1 N1            -0.0155     1.2942     0.0092 N.2     
   2 C2             0.0021    -0.0041     0.0020 C.2     
   3 N3             1.1470    -0.7352    -0.0128 N.am    
   4 C4             2.3544    -0.1236    -0.0211 C.2     
   5 C5             2.3690     1.3440    -0.0133 C.ar    
   6 C6             3.5676     2.0749    -0.0212 C.ar    
   7 C7             3.5164     3.4642    -0.0138 C.ar    
   8 C8             2.2965     4.1212     0.0018 C.ar    
   9 C9             1.1118     3.4173     0.0102 C.ar    
  10 C10            1.1304     2.0208     0.0021 C.ar    
  11 O11            3.3885    -0.7662    -0.0340 O.2     
  12 C12           -1.3145    -0.7372     0.0112 C.3     
  13 S13           -2.6717     0.4602     0.0311 S.3     
  14 N14           -5.9164     1.0938     0.0666 N.2     
  15 C15           -7.2137     0.9893     0.0790 C.2     
  16 N16           -7.5749    -0.3252     0.0762 N.pl3   
  17 C17           -6.4218    -1.0685     0.0611 C.ar    
  18 N18           -6.1430    -2.3680     0.0516 N.ar    
  19 C19           -4.8948    -2.7868     0.0367 C.ar    
  20 N20           -3.8686    -1.9562     0.0300 N.ar    
  21 C21           -4.0491    -0.6387     0.0389 C.ar    
  22 C22           -5.3646    -0.1431     0.0551 C.ar    
  23 N23            1.0790    -2.0994    -0.0191 N.3     
  24 C24            1.7261    -2.6533    -1.2160 C.3     
  25 C25            1.6663    -2.6614     1.2046 C.3     
  26 C26            4.8725     1.3734    -0.0369 C.ar    
  27 C27            5.2379     0.5975    -1.1381 C.ar    
  28 C28            6.4557    -0.0537    -1.1461 C.ar    
  29 C29            7.3120     0.0622    -0.0659 C.ar    
  30 C30            6.9548     0.8300     1.0280 C.ar    
  31 C31            5.7431     1.4904     1.0457 C.ar    
  32 Cl32           4.1638     0.4508    -2.4940 Cl      
  33 H33            4.4332     4.0350    -0.0198 H       
  34 H34            2.2738     5.2010     0.0078 H       
  35 H35            0.1697     3.9451     0.0231 H       
  36 H36           -1.3909    -1.3581    -0.8814 H       
  37 H37           -1.3732    -1.3677     0.8984 H       
  38 H38           -7.9023     1.8212     0.0899 H       
  39 H39           -8.4810    -0.6715     0.0835 H       
  40 H40           -4.7033    -3.8496     0.0297 H       
  41 H41            2.7745    -2.3555    -1.2329 H       
  42 H42            1.6576    -3.7410    -1.1956 H       
  43 H43            1.2263    -2.2744    -2.1074 H       
  44 H44            1.1230    -2.2884     2.0728 H       
  45 H45            1.5991    -3.7489     1.1736 H       
  46 H46            2.7125    -2.3639     1.2753 H       
  47 H47            6.7399    -0.6549    -1.9971 H       
  48 H48            8.2632    -0.4491    -0.0764 H       
  49 H49            7.6276     0.9162     1.8684 H       
  50 H50            5.4678     2.0930     1.8986 H       
@<TRIPOS>BOND
   1    1    2 2
   2    1   10 1
   3    2    3 1
   4    2   12 1
   5    3    4 am
   6    3   23 1
   7    4    5 1
   8    4   11 2
   9    5    6 ar
  10    5   10 ar
  11    6    7 ar
  12    6   26 1
  13    7    8 ar
  14    7   33 1
  15    8    9 ar
  16    8   34 1
  17    9   10 ar
  18    9   35 1
  19   12   13 1
  20   12   36 1
  21   12   37 1
  22   13   21 1
  23   14   15 2
  24   14   22 1
  25   15   16 1
  26   15   38 1
  27   16   17 1
  28   16   39 1
  29   17   18 ar
  30   17   22 ar
  31   18   19 ar
  32   19   20 ar
  33   19   40 1
  34   20   21 ar
  35   21   22 ar
  36   23   24 1
  37   23   25 1
  38   24   41 1
  39   24   42 1
  40   24   43 1
  41   25   44 1
  42   25   45 1
  43   25   46 1
  44   26   27 ar
  45   26   31 ar
  46   27   28 ar
  47   27   32 1
  48   28   29 ar
  49   28   47 1
  50   29   30 ar
  51   29   48 1
  52   30   31 ar
  53   30   49 1
  54   31   50 1

#	End of record

