#	Name: ASD01810446
#	Creating user name:	WinNT
#	Creation time:	15. 06. 2019 19:24

#	Modifying user name:	WinNT
#	Modification time:	15. 06. 2019 19:24

#	Program:	/corina/corina34_cracker 3.40 0067  02.08.2006

@<TRIPOS>MOLECULE
ASD01810446
  31   32    0    0    0
SMALL
NO_CHARGES


@<TRIPOS>ATOM
   1 C1             0.0021    -0.0041     0.0020 C.1     
   2 C2            -0.0173     1.4278     0.0099 C.ar    
   3 C3             1.1804     2.1455     0.0023 C.ar    
   4 C4             1.1544     3.5247     0.0100 C.ar    
   5 C5            -0.0549     4.1969     0.0257 C.ar    
   6 C6            -1.2455     3.4920     0.0337 C.ar    
   7 C7            -1.2341     2.1126     0.0194 C.ar    
   8 N8             0.0175    -1.1399    -0.0042 N.1     
   9 N9            -0.5674     8.5937    -0.8816 N.3     
  10 C10           -0.1682     7.5103    -1.6694 C.3     
  11 C11           -0.8072     6.1882    -1.1912 C.3     
  12 C12           -0.0753     5.7037     0.0345 C.3     
  13 C13           -0.7297     6.1854     1.3447 C.3     
  14 C14           -1.1846     7.6521     1.2554 C.3     
  15 C15           -0.1697     8.5061     0.5375 C.3     
  16 H16            2.1250     1.6220    -0.0092 H       
  17 H17            2.0800     4.0810     0.0042 H       
  18 H18           -2.1859     4.0230     0.0463 H       
  19 H19           -2.1642     1.5637     0.0208 H       
  20 H20           -0.2664     9.4668    -1.2882 H       
  21 H21           -0.4634     7.6943    -2.7024 H       
  22 H22            0.9169     7.4177    -1.6226 H       
  23 H23           -1.8558     6.3576    -0.9466 H       
  24 H24           -0.7317     5.4403    -1.9804 H       
  25 H25            0.9508     6.0697    -0.0003 H       
  26 H26           -1.5948     5.5584     1.5604 H       
  27 H27           -0.0103     6.0862     2.1576 H       
  28 H28           -2.1321     7.6986     0.7186 H       
  29 H29           -1.3285     8.0420     2.2630 H       
  30 H30            0.8170     8.0496     0.6159 H       
  31 H31           -0.1508     9.5034     0.9769 H       
@<TRIPOS>BOND
   1    1    2 1
   2    1    8 3
   3    2    3 ar
   4    2    7 ar
   5    3    4 ar
   6    3   16 1
   7    4    5 ar
   8    4   17 1
   9    5    6 ar
  10    5   12 1
  11    6    7 ar
  12    6   18 1
  13    7   19 1
  14    9   10 1
  15    9   15 1
  16    9   20 1
  17   10   11 1
  18   10   21 1
  19   10   22 1
  20   11   12 1
  21   11   23 1
  22   11   24 1
  23   12   13 1
  24   12   25 1
  25   13   14 1
  26   13   26 1
  27   13   27 1
  28   14   15 1
  29   14   28 1
  30   14   29 1
  31   15   30 1
  32   15   31 1

#	End of record

