#	Name: ASD03910003
#	Creating user name:	WinNT
#	Creation time:	15. 06. 2019 20:47

#	Modifying user name:	WinNT
#	Modification time:	15. 06. 2019 20:47

#	Program:	/corina/corina34_cracker 3.40 0067  02.08.2006

@<TRIPOS>MOLECULE
ASD03910003
  45   46    0    0    0
SMALL
NO_CHARGES


@<TRIPOS>ATOM
   1 C1            -0.8519    -0.4302    -0.4805 C.ar    
   2 C2             0.1443     0.0397     0.3556 C.ar    
   3 C3            -0.0709     1.1672     1.1267 C.ar    
   4 C4            -1.2824     1.8275     1.0642 C.ar    
   5 C5            -2.2849     1.3581     0.2256 C.ar    
   6 C6            -2.0634     0.2290    -0.5521 C.ar    
   7 N7            -3.5134     2.0246     0.1600 N.am    
   8 C8             1.0175     1.6759     2.0365 C.3     
   9 C9            -3.5566     3.3686     0.2516 C.2     
  10 C10           -4.8662     4.0939     0.0788 C.3     
  11 O11           -2.5415     3.9943     0.4732 O.2     
  12 C12           -4.6425     5.5768     0.2268 C.ar    
  13 C13           -4.3365     6.3428    -0.8829 C.ar    
  14 C14           -4.1310     7.7024    -0.7499 C.ar    
  15 C15           -4.2318     8.2991     0.4984 C.ar    
  16 C16           -4.5389     7.5284     1.6104 C.ar    
  17 C17           -4.7490     6.1701     1.4711 C.ar    
  18 O18           -4.0296     9.6363     0.6320 O.3     
  19 C19           -3.6603    10.3573    -0.5452 C.3     
  20 C20           -4.0389    11.8073    -0.3857 C.2     
  21 O21           -4.4871    12.2026     0.6644 O.2     
  22 O22           -3.8781    12.6595    -1.4102 O.3     
  23 C23           -0.6131    -1.6594    -1.3190 C.3     
  24 C24           -2.1494    10.2453    -0.7590 C.3     
  25 H25            1.0922    -0.4752     0.4068 H       
  26 H26           -1.4501     2.7076     1.6672 H       
  27 H27           -2.8409    -0.1383    -1.2055 H       
  28 H28           -4.3339     1.5195     0.0486 H       
  29 H29            1.6406     2.3877     1.4950 H       
  30 H30            0.5691     2.1684     2.8993 H       
  31 H31            1.6300     0.8395     2.3732 H       
  32 H32           -5.2696     3.8844    -0.9119 H       
  33 H33           -5.5719     3.7554     0.8374 H       
  34 H34           -4.2579     5.8777    -1.8545 H       
  35 H35           -3.8917     8.3002    -1.6170 H       
  36 H36           -4.6179     7.9906     2.5832 H       
  37 H37           -4.9881     5.5696     2.3364 H       
  38 H38           -4.1811     9.9384    -1.4062 H       
  39 H39           -4.1350    13.5796    -1.2603 H       
  40 H40           -0.9162    -2.5449    -0.7603 H       
  41 H41           -1.1965    -1.5918    -2.2372 H       
  42 H42            0.4462    -1.7306    -1.5660 H       
  43 H43           -1.8756     9.1966    -0.8744 H       
  44 H44           -1.8678    10.7953    -1.6569 H       
  45 H45           -1.6286    10.6642     0.1020 H       
@<TRIPOS>BOND
   1    1    2 ar
   2    1   23 1
   3    1    6 ar
   4    2    3 ar
   5    2   25 1
   6    3    4 ar
   7    3    8 1
   8    4    5 ar
   9    4   26 1
  10    5    6 ar
  11    5    7 1
  12    6   27 1
  13    7    9 am
  14    7   28 1
  15    8   29 1
  16    8   30 1
  17    8   31 1
  18    9   10 1
  19    9   11 2
  20   10   12 1
  21   10   32 1
  22   10   33 1
  23   12   13 ar
  24   12   17 ar
  25   13   14 ar
  26   13   34 1
  27   14   15 ar
  28   14   35 1
  29   15   16 ar
  30   15   18 1
  31   16   17 ar
  32   16   36 1
  33   17   37 1
  34   18   19 1
  35   19   20 1
  36   19   24 1
  37   19   38 1
  38   20   21 2
  39   20   22 1
  40   22   39 1
  41   23   40 1
  42   23   41 1
  43   23   42 1
  44   24   43 1
  45   24   44 1
  46   24   45 1

#	End of record

