#	Name: ASD01811933
#	Creating user name:	WinNT
#	Creation time:	15. 06. 2019 19:27

#	Modifying user name:	WinNT
#	Modification time:	15. 06. 2019 19:27

#	Program:	/corina/corina34_cracker 3.40 0067  02.08.2006

@<TRIPOS>MOLECULE
ASD01811933
  63   67    0    0    0
SMALL
NO_CHARGES


@<TRIPOS>ATOM
   1 C1            -0.0167     1.3777     0.0096 C.ar    
   2 C2             0.0021    -0.0041     0.0020 C.ar    
   3 C3             1.2066    -0.6849    -0.0127 C.ar    
   4 C4             2.4027     0.0104    -0.0204 C.ar    
   5 C5             2.4009     1.3979    -0.0134 C.ar    
   6 C6             1.1849     2.0906     0.0020 C.ar    
   7 C7             1.1719     3.5700     0.0096 C.2     
   8 C8             1.1769     4.2698     1.2082 C.2     
   9 C9             1.1642     5.6700     1.1782 C.2     
  10 N10            1.1470     6.3213     0.0007 N.am    
  11 C11            1.1420     5.6445    -1.1782 C.2     
  12 C12            1.1601     4.2952    -1.2042 C.2     
  13 C13            1.1329     7.7862    -0.0108 C.3     
  14 C14           -0.1278     8.2785    -0.7243 C.3     
  15 C15           -0.1425     9.8084    -0.7363 C.3     
  16 C16            1.0950    10.3245    -1.4732 C.3     
  17 C17            2.3557     9.8322    -0.7597 C.3     
  18 C18            2.3704     8.3023    -0.7477 C.3     
  19 O19            3.5747     2.0812    -0.0204 O.3     
  20 O20            1.1683     6.3014     2.2233 O.2     
  21 O21           -1.2837     7.7964    -0.0361 O.3     
  22 C22            4.1239     2.4140    -1.2970 C.3     
  23 C23            5.4168     3.1646    -1.1074 C.ar    
  24 C24            6.6113     2.4714    -1.0313 C.ar    
  25 C25            7.7983     3.1540    -0.8576 C.ar    
  26 C26            7.7919     4.5435    -0.7590 C.ar    
  27 C27            6.5860     5.2367    -0.8362 C.ar    
  28 C28            5.4053     4.5447    -1.0156 C.ar    
  29 C29            9.0656     5.2831    -0.5716 C.2     
  30 C30           10.3513     4.7157    -0.4770 C.2     
  31 N31           11.2123     5.6856    -0.3173 N.2     
  32 N32           10.5164     6.9004    -0.3039 N.pl3   
  33 C33            9.2042     6.6362    -0.4658 C.2     
  34 C34           11.1118     8.2297    -0.1462 C.3     
  35 F35            3.5741    -0.6625    -0.0343 F       
  36 F36           -1.1951     2.0382     0.0188 F       
  37 H37           -0.9270    -0.5547     0.0079 H       
  38 H38            1.2131    -1.7649    -0.0178 H       
  39 H39            1.1900     3.7422     2.1504 H       
  40 H40            1.1281     6.1946    -2.1075 H       
  41 H41            1.1609     3.7713    -2.1486 H       
  42 H42            1.1389     8.1577     1.0139 H       
  43 H43           -0.1338     7.9070    -1.7491 H       
  44 H44           -1.0407    10.1591    -1.2447 H       
  45 H45           -0.1365    10.1798     0.2884 H       
  46 H46            1.0890     9.9530    -2.4979 H       
  47 H47            1.0845    11.4144    -1.4818 H       
  48 H48            3.2374    10.1999    -1.2846 H       
  49 H49            2.3618    10.2037     0.2651 H       
  50 H50            3.2686     7.9516    -0.2393 H       
  51 H51            2.3644     7.9309    -1.7724 H       
  52 H52           -2.1212     8.0706    -0.4341 H       
  53 H53            4.3135     1.5003    -1.8603 H       
  54 H54            3.4181     3.0386    -1.8446 H       
  55 H55            6.6152     1.3941    -1.1075 H       
  56 H56            8.7305     2.6118    -0.7980 H       
  57 H57            6.5755     6.3140    -0.7600 H       
  58 H58            4.4704     5.0814    -1.0801 H       
  59 H59           10.5848     3.6624    -0.5272 H       
  60 H60            8.4070     7.3638    -0.5030 H       
  61 H61           11.3665     8.6323    -1.1265 H       
  62 H62           10.3981     8.8916     0.3443 H       
  63 H63           12.0138     8.1540     0.4611 H       
@<TRIPOS>BOND
   1    1    2 ar
   2    1    6 ar
   3    1   36 1
   4    2    3 ar
   5    2   37 1
   6    3    4 ar
   7    3   38 1
   8    4    5 ar
   9    4   35 1
  10    5    6 ar
  11    5   19 1
  12    6    7 1
  13    7    8 2
  14    7   12 1
  15    8    9 1
  16    8   39 1
  17    9   10 am
  18    9   20 2
  19   10   11 1
  20   10   13 1
  21   11   12 2
  22   11   40 1
  23   12   41 1
  24   13   14 1
  25   13   18 1
  26   13   42 1
  27   14   15 1
  28   14   21 1
  29   14   43 1
  30   15   16 1
  31   15   44 1
  32   15   45 1
  33   16   17 1
  34   16   46 1
  35   16   47 1
  36   17   18 1
  37   17   48 1
  38   17   49 1
  39   18   50 1
  40   18   51 1
  41   19   22 1
  42   21   52 1
  43   22   23 1
  44   22   53 1
  45   22   54 1
  46   23   24 ar
  47   23   28 ar
  48   24   25 ar
  49   24   55 1
  50   25   26 ar
  51   25   56 1
  52   26   27 ar
  53   26   29 1
  54   27   28 ar
  55   27   57 1
  56   28   58 1
  57   29   30 1
  58   29   33 2
  59   30   31 2
  60   30   59 1
  61   31   32 1
  62   32   33 1
  63   32   34 1
  64   33   60 1
  65   34   61 1
  66   34   62 1
  67   34   63 1

#	End of record

