#	Name: ASD01820039
#	Creating user name:	WinNT
#	Creation time:	15. 06. 2019 19:36

#	Modifying user name:	WinNT
#	Modification time:	15. 06. 2019 19:36

#	Program:	/corina/corina34_cracker 3.40 0067  02.08.2006

@<TRIPOS>MOLECULE
ASD01820039
  54   56    0    0    0
SMALL
NO_CHARGES


@<TRIPOS>ATOM
   1 C1            -0.0184     1.5023     0.0103 C.ar    
   2 C2             0.0021    -0.0041     0.0020 C.3     
   3 C3             1.1967    -0.4945    -0.8168 C.3     
   4 C4             2.4437     0.2314    -0.3891 C.2     
   5 N5             2.3941     1.5225    -0.0132 N.am    
   6 C6             1.1765     2.2096     0.0027 C.ar    
   7 C7             4.2643     2.8594    -0.8476 C.3     
   8 C8             3.6242     2.2128     0.3824 C.3     
   9 O9             3.5058    -0.3543    -0.3827 O.2     
  10 C10            5.5490     3.5804    -0.4344 C.3     
  11 N11            6.1636     4.2012    -1.6154 N.3     
  12 C12            7.2620     5.0956    -1.2282 C.3     
  13 C13            1.1582     3.5981     0.0114 C.ar    
  14 C14           -0.0480     4.2706     0.0268 C.ar    
  15 C15           -1.2363     3.5630     0.0341 C.ar    
  16 C16           -1.2214     2.1803     0.0197 C.ar    
  17 C17            5.1601     4.9100    -2.4197 C.3     
  18 C18            5.8054     5.4182    -3.7109 C.3     
  19 C19            6.9632     6.3576    -3.3617 C.3     
  20 C20            7.9701     5.6094    -2.4838 C.3     
  21 O21           10.4179     9.2843    -5.2734 O.3     
  22 C22            7.6510     6.8212    -4.6474 C.3     
  23 C23            8.7260     7.8550    -4.3063 C.3     
  24 C24            9.4138     8.3186    -5.5920 C.3     
  25 H25            0.0872    -0.3717     1.0246 H       
  26 H26           -0.9206    -0.3773    -0.4423 H       
  27 H27            1.3287    -1.5649    -0.6591 H       
  28 H28            1.0126    -0.3057    -1.8744 H       
  29 H29            4.5001     2.0891    -1.5818 H       
  30 H30            3.5694     3.5768    -1.2841 H       
  31 H31            3.3884     2.9832     1.1166 H       
  32 H32            4.3191     1.4954     0.8189 H       
  33 H33            5.3132     4.3507     0.2998 H       
  34 H34            6.2439     2.8630     0.0021 H       
  35 H35            6.8622     5.9394    -0.6658 H       
  36 H36            7.9730     4.5501    -0.6077 H       
  37 H37            2.0858     4.1513     0.0065 H       
  38 H38           -0.0633     5.3504     0.0335 H       
  39 H39           -2.1780     4.0915     0.0465 H       
  40 H40           -2.1508     1.6304     0.0253 H       
  41 H41            4.3444     4.2297    -2.6646 H       
  42 H42            4.7701     5.7547    -1.8517 H       
  43 H43            6.1834     4.5729    -4.2860 H       
  44 H44            5.0641     5.9578    -4.3004 H       
  45 H45            6.5797     7.2230    -2.8213 H       
  46 H46            8.7754     6.2855    -2.1966 H       
  47 H47            8.3822     4.7671    -3.0396 H       
  48 H48           10.8960     9.6229    -6.0427 H       
  49 H49            8.1128     5.9661    -5.1410 H       
  50 H50            6.9133     7.2699    -5.3126 H       
  51 H51            8.2642     8.7101    -3.8127 H       
  52 H52            9.4637     7.4063    -3.6411 H       
  53 H53            8.6762     8.7674    -6.2572 H       
  54 H54            9.8757     7.4636    -6.0856 H       
@<TRIPOS>BOND
   1    1    2 1
   2    1    6 ar
   3    1   16 ar
   4    2    3 1
   5    2   25 1
   6    2   26 1
   7    3    4 1
   8    3   27 1
   9    3   28 1
  10    4    5 am
  11    4    9 2
  12    5    6 1
  13    5    8 1
  14    6   13 ar
  15    7    8 1
  16    7   10 1
  17    7   29 1
  18    7   30 1
  19    8   31 1
  20    8   32 1
  21   10   11 1
  22   10   33 1
  23   10   34 1
  24   11   12 1
  25   11   17 1
  26   12   20 1
  27   12   35 1
  28   12   36 1
  29   13   14 ar
  30   13   37 1
  31   14   15 ar
  32   14   38 1
  33   15   16 ar
  34   15   39 1
  35   16   40 1
  36   17   18 1
  37   17   41 1
  38   17   42 1
  39   18   19 1
  40   18   43 1
  41   18   44 1
  42   19   22 1
  43   19   20 1
  44   19   45 1
  45   20   46 1
  46   20   47 1
  47   21   24 1
  48   21   48 1
  49   22   23 1
  50   22   49 1
  51   22   50 1
  52   23   24 1
  53   23   51 1
  54   23   52 1
  55   24   53 1
  56   24   54 1

#	End of record

