#	Name: ASD00170755
#	Creating user name:	WinNT
#	Creation time:	15. 06. 2019 18:32

#	Modifying user name:	WinNT
#	Modification time:	15. 06. 2019 18:32

#	Program:	/corina/corina34_cracker 3.40 0067  02.08.2006

@<TRIPOS>MOLECULE
ASD00170755
  42   44    0    0    0
SMALL
NO_CHARGES


@<TRIPOS>ATOM
   1 C1            -0.0170     1.2078     0.0003 C.2     
   2 O2             0.6391     0.9996    -1.0044 O.2     
   3 C3             0.4742     0.7392     1.3148 C.ar    
   4 C4             1.6297    -0.0395     1.3943 C.ar    
   5 C5             2.0827    -0.4728     2.6232 C.ar    
   6 C6             1.3941    -0.1371     3.7754 C.ar    
   7 C7             0.2479     0.6346     3.7035 C.ar    
   8 C8            -0.2127     1.0788     2.4813 C.ar    
   9 C9            -1.3570     3.2722    -0.0193 C.2     
  10 C10           -1.2491     1.9047    -0.0891 C.2     
  11 C11           -2.5355     1.2485    -0.2646 C.2     
  12 C12           -3.5544     2.1122    -0.3215 C.2     
  13 S13           -2.9822     3.7628    -0.1627 S.3     
  14 C14           -4.9988     1.7208    -0.4988 C.3     
  15 C15           -2.6991    -0.2209    -0.3698 C.ar    
  16 C16           -3.3950    -0.9199     0.6157 C.ar    
  17 C17           -3.5440    -2.2879     0.5124 C.ar    
  18 C18           -3.0042    -2.9658    -0.5659 C.ar    
  19 C19           -2.3124    -2.2777    -1.5465 C.ar    
  20 C20           -2.1626    -0.9087    -1.4575 C.ar    
  21 C21           -1.7269    -3.0236    -2.7178 C.3     
  22 F22           -2.0119    -4.3874    -2.5916 F       
  23 F23           -2.2848    -2.5385    -3.9055 F       
  24 F24           -0.3406    -2.8373    -2.7435 F       
  25 C25           -4.2959    -3.0449     1.5767 C.3     
  26 F26           -5.6514    -3.1062     1.2358 F       
  27 F27           -3.7814    -4.3419     1.6780 F       
  28 F28           -4.1530    -2.3893     2.8043 F       
  29 N29           -0.2923     4.1330     0.1501 N.pl3   
  30 H30            2.1679    -0.3025     0.4956 H       
  31 H31            2.9765    -1.0758     2.6860 H       
  32 H32            1.7527    -0.4791     4.7350 H       
  33 H33           -0.2850     0.8933     4.6066 H       
  34 H34           -1.1052     1.6845     2.4269 H       
  35 H35           -5.4558     1.5653     0.4785 H       
  36 H36           -5.5284     2.5148    -1.0253 H       
  37 H37           -5.0571     0.7992    -1.0779 H       
  38 H38           -3.8163    -0.3918     1.4583 H       
  39 H39           -3.1231    -4.0365    -0.6423 H       
  40 H40           -1.6264    -0.3720    -2.2261 H       
  41 H41            0.5977     3.7792     0.3040 H       
  42 H42           -0.4337     5.0920     0.1154 H       
@<TRIPOS>BOND
   1    1    2 2
   2    1    3 1
   3    1   10 1
   4    3    4 ar
   5    3    8 ar
   6    4    5 ar
   7    4   30 1
   8    5    6 ar
   9    5   31 1
  10    6    7 ar
  11    6   32 1
  12    7    8 ar
  13    7   33 1
  14    8   34 1
  15    9   10 2
  16    9   13 1
  17    9   29 1
  18   10   11 1
  19   11   12 2
  20   11   15 1
  21   12   13 1
  22   12   14 1
  23   14   35 1
  24   14   36 1
  25   14   37 1
  26   15   16 ar
  27   15   20 ar
  28   16   17 ar
  29   16   38 1
  30   17   18 ar
  31   17   25 1
  32   18   19 ar
  33   18   39 1
  34   19   20 ar
  35   19   21 1
  36   20   40 1
  37   21   22 1
  38   21   23 1
  39   21   24 1
  40   25   26 1
  41   25   27 1
  42   25   28 1
  43   29   41 1
  44   29   42 1

#	End of record

