#	Name: ASD01910584
#	Creating user name:	WinNT
#	Creation time:	15. 06. 2019 19:56

#	Modifying user name:	WinNT
#	Modification time:	15. 06. 2019 19:56

#	Program:	/corina/corina34_cracker 3.40 0067  02.08.2006

@<TRIPOS>MOLECULE
ASD01910584
  44   47    0    0    0
SMALL
NO_CHARGES


@<TRIPOS>ATOM
   1 C1            -0.1734     1.4511     0.4033 C.ar    
   2 C2            -0.1491     0.0689     0.3009 C.ar    
   3 C3             1.0526    -0.5963     0.1140 C.ar    
   4 C4             2.2309     0.1144     0.0290 C.ar    
   5 C5             2.2123     1.5068     0.1315 C.ar    
   6 C6             0.9990     2.1718     0.3196 C.ar    
   7 F7            -1.3008    -0.6325     0.3840 F       
   8 C8             3.4718     2.2737     0.0416 C.2     
   9 N9             3.6043     3.5862     0.1209 N.2     
  10 C10            4.9183     3.8238    -0.0129 C.2     
  11 N11            5.5125     2.6770    -0.1637 N.2     
  12 O12            4.7049     1.7727    -0.1306 O.3     
  13 C13            5.5848     5.1752     0.0079 C.3     
  14 C14            6.3102     5.4075    -1.3195 C.3     
  15 C15            6.9599     6.7932    -1.3121 C.3     
  16 C16            7.9892     6.8641    -0.1797 C.3     
  17 N17            7.3301     6.4999     1.0820 N.am    
  18 C18            6.5985     5.2278     1.1553 C.3     
  19 C19            7.3954     7.3171     2.1517 C.2     
  20 C20            8.2403     8.5281     2.1056 C.ar    
  21 O21            6.7591     7.0577     3.1545 O.2     
  22 C22            7.7726     9.7296     2.6422 C.ar    
  23 C23            8.5652    10.8564     2.5969 C.ar    
  24 C24            9.8247    10.7984     2.0200 C.ar    
  25 C25           10.2937     9.6082     1.4853 C.ar    
  26 C26            9.5117     8.4740     1.5304 C.ar    
  27 F27           10.5975    11.9058     1.9782 F       
  28 H28           -1.1129     1.9648     0.5444 H       
  29 H29            1.0660    -1.6734     0.0352 H       
  30 H30            3.1667    -0.4048    -0.1163 H       
  31 H31            0.9790     3.2486     0.3992 H       
  32 H32            4.8317     5.9501     0.1514 H       
  33 H33            7.0794     4.6465    -1.4509 H       
  34 H34            5.5951     5.3461    -2.1397 H       
  35 H35            7.4566     6.9672    -2.2666 H       
  36 H36            6.1943     7.5531    -1.1559 H       
  37 H37            8.8029     6.1674    -0.3813 H       
  38 H38            8.3830     7.8778    -0.1068 H       
  39 H39            6.0748     5.1620     2.1089 H       
  40 H40            7.2988     4.3977     1.0625 H       
  41 H41            6.7916     9.7759     3.0915 H       
  42 H42            8.2044    11.7862     3.0113 H       
  43 H43           11.2754     9.5685     1.0368 H       
  44 H44            9.8781     7.5473     1.1140 H       
@<TRIPOS>BOND
   1    1    2 ar
   2    1    6 ar
   3    1   28 1
   4    2    3 ar
   5    2    7 1
   6    3    4 ar
   7    3   29 1
   8    4    5 ar
   9    4   30 1
  10    5    6 ar
  11    5    8 1
  12    6   31 1
  13    8    9 2
  14    8   12 1
  15    9   10 1
  16   10   11 2
  17   10   13 1
  18   11   12 1
  19   13   14 1
  20   13   18 1
  21   13   32 1
  22   14   15 1
  23   14   33 1
  24   14   34 1
  25   15   16 1
  26   15   35 1
  27   15   36 1
  28   16   17 1
  29   16   37 1
  30   16   38 1
  31   17   18 1
  32   17   19 am
  33   18   39 1
  34   18   40 1
  35   19   20 1
  36   19   21 2
  37   20   22 ar
  38   20   26 ar
  39   22   23 ar
  40   22   41 1
  41   23   24 ar
  42   23   42 1
  43   24   25 ar
  44   24   27 1
  45   25   26 ar
  46   25   43 1
  47   26   44 1

#	End of record

