#	Name: ASD03240219
#	Creating user name:	WinNT
#	Creation time:	15. 06. 2019 20:34

#	Modifying user name:	WinNT
#	Modification time:	15. 06. 2019 20:34

#	Program:	/corina/corina34_cracker 3.40 0067  02.08.2006

@<TRIPOS>MOLECULE
ASD03240219
  70   73    0    0    0
SMALL
NO_CHARGES


@<TRIPOS>ATOM
   1 C1             0.4926     2.8158     1.8313 C.2     
   2 N2             0.7778     2.1761     3.0144 N.pl3   
   3 O3            -3.1882     4.2950     1.3492 O.2     
   4 C4            -2.4924     4.5023     0.3777 C.2     
   5 C5            -1.0638     4.0230     0.3579 C.3     
   6 N6            -0.7599     3.3414     1.6186 N.pl3   
   7 N7             1.4111     2.9285     0.9135 N.2     
   8 N8            -2.9969     5.1614    -0.6842 N.am    
   9 C9            -4.3474     5.5074    -0.7128 C.ar    
  10 C10           -4.7503     6.6800    -1.3442 C.ar    
  11 C11           -6.0828     7.0246    -1.3742 C.ar    
  12 C12           -7.0313     6.1949    -0.7700 C.ar    
  13 C13           -6.6232     5.0176    -0.1370 C.ar    
  14 C14           -5.2896     4.6765    -0.1148 C.ar    
  15 C15           -8.4605     6.5614    -0.7998 C.2     
  16 N16           -9.3739     5.7601    -0.2166 N.am    
  17 O17           -8.8140     7.5863    -1.3506 O.2     
  18 C18          -10.7152     6.1588    -0.1510 C.ar    
  19 C19          -11.7260     5.2095    -0.2237 C.ar    
  20 C20          -11.0337     7.5028    -0.0074 C.ar    
  21 C21          -12.3556     7.8959     0.0577 C.ar    
  22 C22          -13.3668     6.9470    -0.0203 C.ar    
  23 C23          -13.0480     5.6023    -0.1590 C.ar    
  24 N24          -14.7063     7.3451     0.0456 N.pl3   
  25 C25          -15.7729     6.3442    -0.0367 C.3     
  26 C26          -15.0425     8.7630     0.1971 C.3     
  27 C27          -15.1843     9.3937    -1.1642 C.ar    
  28 C28          -16.1120     5.8564     1.3483 C.ar    
  29 C29          -16.4170     9.4058    -1.7925 C.ar    
  30 C30          -16.5541     9.9819    -3.0384 C.ar    
  31 C31          -15.4453    10.5537    -3.6654 C.ar    
  32 C32          -14.2042    10.5380    -3.0256 C.ar    
  33 C33          -14.0825     9.9632    -1.7775 C.ar    
  34 C34          -17.0893     6.5013     2.0854 C.ar    
  35 C35          -17.4051     6.0598     3.3536 C.ar    
  36 C36          -16.7358     4.9594     3.8931 C.ar    
  37 C37          -15.7506     4.3134     3.1436 C.ar    
  38 C38          -15.4486     4.7622     1.8746 C.ar    
  39 C39          -17.0580     4.4959     5.2091 C.1     
  40 N40          -17.3136     4.1282     6.2531 N.1     
  41 C41          -15.5801    11.1531    -4.9589 C.1     
  42 N42          -15.6870    11.6286    -5.9851 N.1     
  43 H43            1.6626     1.8088     3.1660 H       
  44 H44            0.0942     2.0922     3.6974 H       
  45 H45           -0.9244     3.3306    -0.4723 H       
  46 H46           -0.3961     4.8758     0.2358 H       
  47 H47           -1.4423     3.2610     2.3032 H       
  48 H48            1.2099     3.3798     0.0788 H       
  49 H49           -2.4205     5.3950    -1.4286 H       
  50 H50           -4.0168     7.3207    -1.8109 H       
  51 H51           -6.3947     7.9353    -1.8639 H       
  52 H52           -7.3537     4.3742     0.3309 H       
  53 H53           -4.9736     3.7667     0.3738 H       
  54 H54           -9.1026     4.9074     0.1577 H       
  55 H55          -11.4781     4.1638    -0.3312 H       
  56 H56          -10.2474     8.2406     0.0536 H       
  57 H57          -12.6033     8.9411     0.1697 H       
  58 H58          -13.8342     4.8644    -0.2198 H       
  59 H59          -16.6569     6.7918    -0.4908 H       
  60 H60          -15.4372     5.5047    -0.6455 H       
  61 H61          -15.9823     8.8575     0.7410 H       
  62 H62          -14.2501     9.2672     0.7503 H       
  63 H63          -17.2738     8.9628    -1.3065 H       
  64 H64          -17.5168     9.9903    -3.5279 H       
  65 H65          -13.3425    10.9782    -3.5052 H       
  66 H66          -13.1233     9.9504    -1.2815 H       
  67 H67          -17.6060     7.3525     1.6671 H       
  68 H68          -18.1679     6.5642     3.9281 H       
  69 H69          -15.2288     3.4619     3.5550 H       
  70 H70          -14.6868     4.2635     1.2938 H       
@<TRIPOS>BOND
   1    1    2 1
   2    1    7 2
   3    1    6 1
   4    2   43 1
   5    2   44 1
   6    3    4 2
   7    4    5 1
   8    4    8 am
   9    5    6 1
  10    5   45 1
  11    5   46 1
  12    6   47 1
  13    7   48 1
  14    8    9 1
  15    8   49 1
  16    9   10 ar
  17    9   14 ar
  18   10   11 ar
  19   10   50 1
  20   11   12 ar
  21   11   51 1
  22   12   13 ar
  23   12   15 1
  24   13   14 ar
  25   13   52 1
  26   14   53 1
  27   15   16 am
  28   15   17 2
  29   16   18 1
  30   16   54 1
  31   18   19 ar
  32   18   20 ar
  33   19   23 ar
  34   19   55 1
  35   20   21 ar
  36   20   56 1
  37   21   22 ar
  38   21   57 1
  39   22   23 ar
  40   22   24 1
  41   23   58 1
  42   24   25 1
  43   24   26 1
  44   25   28 1
  45   25   59 1
  46   25   60 1
  47   26   27 1
  48   26   61 1
  49   26   62 1
  50   27   29 ar
  51   27   33 ar
  52   28   34 ar
  53   28   38 ar
  54   29   30 ar
  55   29   63 1
  56   30   31 ar
  57   30   64 1
  58   31   32 ar
  59   31   41 1
  60   32   33 ar
  61   32   65 1
  62   33   66 1
  63   34   35 ar
  64   34   67 1
  65   35   36 ar
  66   35   68 1
  67   36   37 ar
  68   36   39 1
  69   37   38 ar
  70   37   69 1
  71   38   70 1
  72   39   40 3
  73   41   42 3

#	End of record

