#	Name: ASD01890013
#	Creating user name:	WinNT
#	Creation time:	15. 06. 2019 19:50

#	Modifying user name:	WinNT
#	Modification time:	15. 06. 2019 19:50

#	Program:	/corina/corina34_cracker 3.40 0067  02.08.2006

@<TRIPOS>MOLECULE
ASD01890013
 122  123    0    0    0
SMALL
NO_CHARGES


@<TRIPOS>ATOM
   1 N1             0.7672     1.1918     1.4405 N.am    
   2 C2             0.6015    -0.2497     1.6774 C.3     
   3 C3            -0.6175    -0.4239     2.6077 C.3     
   4 C4            -1.4132     0.8898     2.3876 C.3     
   5 C5            -0.2665     1.9178     2.2006 C.3     
   6 C6             0.3547    -0.9588     0.3708 C.2     
   7 N7             0.1735    -2.2942     0.3526 N.am    
   8 O8             0.3190    -0.3278    -0.6643 O.2     
   9 C9            -0.0665    -2.9836    -0.9176 C.3     
  10 C10            0.3644    -4.4227    -0.7973 C.2     
  11 C11           -1.5573    -2.9242    -1.2563 C.3     
  12 O12            0.8265    -4.8321     0.2466 O.2     
  13 N13            0.2363    -5.2547    -1.8499 N.am    
  14 C14            0.7551    -6.6224    -1.7698 C.3     
  15 C15           -0.0317    -7.5131    -2.6964 C.2     
  16 C16            2.2288    -6.6338    -2.1808 C.3     
  17 N17            0.2742    -8.8221    -2.7939 N.am    
  18 O18           -0.9401    -7.0521    -3.3545 O.2     
  19 C19           -0.4906    -9.6880    -3.6947 C.3     
  20 C20           -1.7477   -10.1856    -2.9785 C.3     
  21 C21            0.3572   -10.8666    -4.0986 C.2     
  22 N22           -0.1422   -11.8026    -4.9298 N.am    
  23 O23            1.4889   -10.9729    -3.6756 O.2     
  24 C24            2.3815    -5.9693    -3.5505 C.3     
  25 C25            3.8676    -5.8045    -3.8746 C.3     
  26 C26            1.7206    -6.8438    -4.6180 C.3     
  27 C27           -1.9672    -1.4706    -1.5010 C.3     
  28 C28            1.7114     1.7565     0.6619 C.2     
  29 C29            1.6957     3.2433     0.4167 C.3     
  30 O30            2.5738     1.0680     0.1587 O.2     
  31 N31            2.1671     3.5190    -0.9427 N.am    
  32 C32            2.6140     3.9363     1.4254 C.3     
  33 C33            2.6212     5.4426     1.1575 C.3     
  34 C34            2.1044     3.6730     2.8438 C.3     
  35 C35            1.7890     4.6500    -1.5707 C.2     
  36 O36            1.0584     5.4394    -1.0104 O.2     
  37 C37            2.2739     4.9336    -2.9690 C.3     
  38 N38            1.7269     6.2138    -3.4253 N.am    
  39 C39            1.8091     3.8173    -3.9063 C.3     
  40 C40            2.3696     6.9207    -4.3760 C.2     
  41 O41            3.4008     6.4971    -4.8536 O.2     
  42 C42            1.8069     8.2376    -4.8453 C.3     
  43 N43            2.3735     8.5719    -6.1588 N.3     
  44 C44            2.1676     9.3335    -3.8405 C.3     
  45 C45            1.4927    10.6439    -4.2508 C.3     
  46 C46            1.8534    11.7398    -3.2460 C.3     
  47 N47            1.2072    12.9945    -3.6388 N.pl3   
  48 C48            1.3874    14.1273    -2.8809 C.2     
  49 N49            0.7809    15.3048    -3.2496 N.pl3   
  50 N50            2.1331    14.0850    -1.8128 N.2     
  51 C51            2.3957     4.0355    -5.2772 C.ar    
  52 C52            3.6202     3.4819    -5.6012 C.ar    
  53 C53            4.1583     3.6821    -6.8586 C.ar    
  54 C54            3.4717     4.4356    -7.7923 C.ar    
  55 C55            2.2468     4.9885    -7.4686 C.ar    
  56 C56            1.7066     4.7847    -6.2126 C.ar    
  57 C57           -3.4357    -1.4121    -1.8347 C.2     
  58 O58           -4.0874    -2.4288    -1.8729 O.2     
  59 O59           -4.0195    -0.2306    -2.0894 O.3     
  60 H60            1.4941    -0.6515     2.1569 H       
  61 H61           -1.2102    -1.2885     2.3088 H       
  62 H62           -0.3001    -0.5131     3.6466 H       
  63 H63           -2.0342     0.8253     1.4941 H       
  64 H64           -2.0150     1.1334     3.2631 H       
  65 H65            0.1200     2.2353     3.1690 H       
  66 H66           -0.6176     2.7781     1.6307 H       
  67 H67            0.2021    -2.7989     1.1805 H       
  68 H68            0.5054    -2.4980    -1.7083 H       
  69 H69           -1.7496    -3.5120    -2.1539 H       
  70 H70           -2.1351    -3.3298    -0.4258 H       
  71 H71           -0.1993    -4.9479    -2.6604 H       
  72 H72            0.6602    -6.9877    -0.7472 H       
  73 H73            2.8158    -6.0858    -1.4437 H       
  74 H74            2.5830    -7.6632    -2.2348 H       
  75 H75            1.0008    -9.1908    -2.2676 H       
  76 H76           -0.7773    -9.1252    -4.5831 H       
  77 H77           -2.3609    -9.3331    -2.6864 H       
  78 H78           -2.3168   -10.8298    -3.6487 H       
  79 H79           -1.4610   -10.7483    -2.0901 H       
  80 H80           -1.0473   -11.7176    -5.2681 H       
  81 H81            0.4035   -12.5613    -5.1898 H       
  82 H82            1.9022    -4.9905    -3.5349 H       
  83 H83            4.3469    -6.7834    -3.8902 H       
  84 H84            3.9764    -5.3312    -4.8504 H       
  85 H85            4.3384    -5.1815    -3.1141 H       
  86 H86            0.6399    -6.7059    -4.5827 H       
  87 H87            2.0914    -6.5581    -5.6023 H       
  88 H88            1.9597    -7.8904    -4.4294 H       
  89 H89           -1.7749    -0.8829    -0.6034 H       
  90 H90           -1.3895    -1.0651    -2.3316 H       
  91 H91            0.6793     3.6198     0.5322 H       
  92 H92            2.7515     2.8876    -1.3908 H       
  93 H93            3.6261     3.5444     1.3243 H       
  94 H94            1.6091     5.8345     1.2585 H       
  95 H95            3.2754     5.9363     1.8761 H       
  96 H96            2.9842     5.6302     0.1470 H       
  97 H97            2.1848     2.6091     3.0671 H       
  98 H98            2.7036     4.2400     3.5562 H       
  99 H99            1.0619     3.9822     2.9186 H       
 100 H100           3.3629     4.9817    -2.9732 H       
 101 H101           0.9022     6.5526    -3.0433 H       
 102 H102           2.1416     2.8547    -3.5179 H       
 103 H103           0.7210     3.8267    -3.9710 H       
 104 H104           0.7226     8.1613    -4.9261 H       
 105 H105           1.9637     9.4183    -6.5246 H       
 106 H106           3.3784     8.6483    -6.1103 H       
 107 H107           1.8242     9.0434    -2.8475 H       
 108 H108           3.2488     9.4710    -3.8252 H       
 109 H109           1.8361    10.9341    -5.2438 H       
 110 H110           0.4115    10.5065    -4.2661 H       
 111 H111           1.5100    11.4496    -2.2530 H       
 112 H112           2.9346    11.8772    -3.2307 H       
 113 H113           0.6522    13.0260    -4.4338 H       
 114 H114           0.2259    15.3363    -4.0445 H       
 115 H115           0.9080    16.1040    -2.7148 H       
 116 H116           2.2603    14.8842    -1.2780 H       
 117 H117           4.1566     2.8932    -4.8717 H       
 118 H118           5.1153     3.2501    -7.1115 H       
 119 H119           3.8924     4.5927    -8.7745 H       
 120 H120           1.7105     5.5775    -8.1979 H       
 121 H121           0.7496     5.2166    -5.9597 H       
 122 H122          -4.9635    -0.2435    -2.2986 H       
@<TRIPOS>BOND
   1    1    2 1
   2    1   28 am
   3    1    5 1
   4    2    3 1
   5    2    6 1
   6    2   60 1
   7    3    4 1
   8    3   61 1
   9    3   62 1
  10    4    5 1
  11    4   63 1
  12    4   64 1
  13    5   65 1
  14    5   66 1
  15    6    7 am
  16    6    8 2
  17    7    9 1
  18    7   67 1
  19    9   10 1
  20    9   11 1
  21    9   68 1
  22   10   12 2
  23   10   13 am
  24   11   27 1
  25   11   69 1
  26   11   70 1
  27   13   14 1
  28   13   71 1
  29   14   15 1
  30   14   16 1
  31   14   72 1
  32   15   17 am
  33   15   18 2
  34   16   24 1
  35   16   73 1
  36   16   74 1
  37   17   19 1
  38   17   75 1
  39   19   20 1
  40   19   21 1
  41   19   76 1
  42   20   77 1
  43   20   78 1
  44   20   79 1
  45   21   22 am
  46   21   23 2
  47   22   80 1
  48   22   81 1
  49   24   25 1
  50   24   26 1
  51   24   82 1
  52   25   83 1
  53   25   84 1
  54   25   85 1
  55   26   86 1
  56   26   87 1
  57   26   88 1
  58   27   57 1
  59   27   89 1
  60   27   90 1
  61   28   30 2
  62   28   29 1
  63   29   31 1
  64   29   32 1
  65   29   91 1
  66   31   35 am
  67   31   92 1
  68   32   33 1
  69   32   34 1
  70   32   93 1
  71   33   94 1
  72   33   95 1
  73   33   96 1
  74   34   97 1
  75   34   98 1
  76   34   99 1
  77   35   36 2
  78   35   37 1
  79   37   38 1
  80   37   39 1
  81   37  100 1
  82   38   40 am
  83   38  101 1
  84   39   51 1
  85   39  102 1
  86   39  103 1
  87   40   41 2
  88   40   42 1
  89   42   43 1
  90   42   44 1
  91   42  104 1
  92   43  105 1
  93   43  106 1
  94   44   45 1
  95   44  107 1
  96   44  108 1
  97   45   46 1
  98   45  109 1
  99   45  110 1
 100   46   47 1
 101   46  111 1
 102   46  112 1
 103   47   48 1
 104   47  113 1
 105   48   49 1
 106   48   50 2
 107   49  114 1
 108   49  115 1
 109   50  116 1
 110   51   52 ar
 111   51   56 ar
 112   52   53 ar
 113   52  117 1
 114   53   54 ar
 115   53  118 1
 116   54   55 ar
 117   54  119 1
 118   55   56 ar
 119   55  120 1
 120   56  121 1
 121   57   58 2
 122   57   59 1
 123   59  122 1

#	End of record

