#	Name: ASD01150211
#	Creating user name:	WinNT
#	Creation time:	15. 06. 2019 19:03

#	Modifying user name:	WinNT
#	Modification time:	15. 06. 2019 19:03

#	Program:	/corina/corina34_cracker 3.40 0067  02.08.2006

@<TRIPOS>MOLECULE
ASD01150211
  48   51    0    0    0
SMALL
NO_CHARGES


@<TRIPOS>ATOM
   1 C1            -0.0159     1.3205     0.0093 C.ar    
   2 N2             0.0021    -0.0041     0.0020 N.ar    
   3 C3             1.1588    -0.6427    -0.0124 C.ar    
   4 C4             2.3546     0.0631    -0.0200 C.ar    
   5 N5             2.3510     1.3823    -0.0125 N.ar    
   6 C6             1.1966     2.0331     0.0016 C.ar    
   7 C7             1.1375     3.5094     0.0100 C.2     
   8 N8            -0.0772     4.1001     0.0238 N.am    
   9 C9            -1.2044     3.3715     0.0303 C.2     
  10 N10           -1.2038     2.0278     0.0302 N.am    
  11 C11           -0.1659     5.5624     0.0324 C.3     
  12 O12            2.1549     4.1746     0.0050 O.2     
  13 C13           -0.2088     6.0714    -1.3854 C.ar    
  14 C14           -1.4236     6.2322    -2.0253 C.ar    
  15 C15           -1.4636     6.6990    -3.3256 C.ar    
  16 C16           -0.2875     7.0053    -3.9868 C.ar    
  17 C17            0.9280     6.8441    -3.3458 C.ar    
  18 C18            0.9664     6.3826    -2.0436 C.ar    
  19 Cl19          -0.3369     7.5911    -5.6202 Cl      
  20 O20           -2.2722     3.9524     0.0436 O.2     
  21 C21           -2.4772     1.3035     0.0375 C.3     
  22 C22           -2.9288     1.0515    -1.4025 C.3     
  23 C23           -4.1921     0.1883    -1.3971 C.3     
  24 C24           -4.6437    -0.0637    -2.8371 C.3     
  25 C25           -4.9421     1.2729    -3.5193 C.3     
  26 C26           -3.6789     2.1360    -3.5247 C.3     
  27 C27           -3.2273     2.3880    -2.0847 C.3     
  28 H28            1.1743    -1.7225    -0.0180 H       
  29 H29            3.2931    -0.4711    -0.0318 H       
  30 H30           -1.0716     5.8684     0.5559 H       
  31 H31            0.7050     5.9762     0.5408 H       
  32 H32           -2.3415     5.9928    -1.5091 H       
  33 H33           -2.4126     6.8243    -3.8255 H       
  34 H34            1.8463     7.0831    -3.8615 H       
  35 H35            1.9151     6.2568    -1.5431 H       
  36 H36           -2.3501     0.3502     0.5505 H       
  37 H37           -3.2300     1.8974     0.5557 H       
  38 H38           -2.1379     0.5347    -1.9461 H       
  39 H39           -3.9795    -0.7639    -0.9111 H       
  40 H40           -4.9829     0.7051    -0.8535 H       
  41 H41           -3.8528    -0.5805    -3.3807 H       
  42 H42           -5.5437    -0.6786    -2.8332 H       
  43 H43           -5.2639     1.0933    -4.5451 H       
  44 H44           -5.7330     1.7897    -2.9756 H       
  45 H45           -2.8880     1.6192    -4.0683 H       
  46 H46           -3.8915     3.0882    -4.0107 H       
  47 H47           -4.0181     2.9049    -1.5411 H       
  48 H48           -2.3273     3.0030    -2.0885 H       
@<TRIPOS>BOND
   1    1    2 ar
   2    1    6 ar
   3    1   10 1
   4    2    3 ar
   5    3    4 ar
   6    3   28 1
   7    4    5 ar
   8    4   29 1
   9    5    6 ar
  10    6    7 1
  11    7    8 am
  12    7   12 2
  13    8    9 am
  14    8   11 1
  15    9   10 am
  16    9   20 2
  17   10   21 1
  18   11   13 1
  19   11   30 1
  20   11   31 1
  21   13   14 ar
  22   13   18 ar
  23   14   15 ar
  24   14   32 1
  25   15   16 ar
  26   15   33 1
  27   16   17 ar
  28   16   19 1
  29   17   18 ar
  30   17   34 1
  31   18   35 1
  32   21   22 1
  33   21   36 1
  34   21   37 1
  35   22   23 1
  36   22   27 1
  37   22   38 1
  38   23   24 1
  39   23   39 1
  40   23   40 1
  41   24   25 1
  42   24   41 1
  43   24   42 1
  44   25   26 1
  45   25   43 1
  46   25   44 1
  47   26   27 1
  48   26   45 1
  49   26   46 1
  50   27   47 1
  51   27   48 1

#	End of record

