#	Name: ASD01209214
#	Creating user name:	WinNT
#	Creation time:	15. 06. 2019 19:11

#	Modifying user name:	WinNT
#	Modification time:	15. 06. 2019 19:11

#	Program:	/corina/corina34_cracker 3.40 0067  02.08.2006

@<TRIPOS>MOLECULE
ASD01209214
  68   71    0    0    0
SMALL
NO_CHARGES


@<TRIPOS>ATOM
   1 N1            -0.0158     1.3117     0.0093 N.2     
   2 C2             0.0021    -0.0041     0.0020 C.2     
   3 C3            -1.1652    -0.9031     0.0076 C.2     
   4 N4            -2.4112    -0.3897     0.0220 N.am    
   5 O5            -1.0043    -2.1086    -0.0008 O.2     
   6 C6            -3.5116    -1.2372     0.0273 C.2     
   7 P7            -7.7219    -1.3767     1.7893 P.3     
   8 O8            -6.9046    -0.3812     2.5182 O.2     
   9 C9            -7.1470    -1.4880     0.0629 C.3     
  10 N10           -4.7483    -0.8484     0.0409 N.2     
  11 S11           -3.4324    -2.9449     0.0093 S.3     
  12 C12           -5.1916    -3.0373     0.0296 C.2     
  13 C13           -5.6712    -1.7921     0.0435 C.2     
  14 C14            1.4170    -0.3983    -0.0136 C.ar    
  15 C15            2.1202     0.8222    -0.0138 C.ar    
  16 N16            1.1682     1.8080     0.0006 N.pl3   
  17 C17            2.1127    -1.6038    -0.0271 C.ar    
  18 C18            3.4798    -1.5923    -0.0405 C.ar    
  19 C19            4.1752    -0.3899    -0.0402 C.ar    
  20 C20            3.5113     0.8048    -0.0271 C.ar    
  21 S21            5.9371    -0.4049    -0.0571 S.o2    
  22 O22            6.3038     0.8255     0.5517 O.2     
  23 O23            6.2826    -1.6483     0.5378 O.2     
  24 C24            6.3730    -0.3988    -1.8179 C.3     
  25 C25            1.4635     3.2429     0.0059 C.3     
  26 C26            1.5530     3.7506    -1.4346 C.3     
  27 C27            1.7375     5.2712    -1.4315 C.3     
  28 C28            1.9047     5.7601    -2.8726 C.3     
  29 O29            3.0186     5.0962    -3.4731 O.3     
  30 C30            2.8810     3.6757    -3.5465 C.3     
  31 C31            2.7530     3.1031    -2.1325 C.3     
  32 O32           -7.5740    -2.8148     2.4979 O.3     
  33 C33           -7.6054    -4.5025     4.2274 C.3     
  34 C34           -7.8440    -3.0306     3.8845 C.3     
  35 O35           -9.2666    -0.9233     1.8124 O.3     
  36 C36          -11.4158    -0.2441     2.6841 C.3     
  37 C37           -9.9782    -0.6455     3.0201 C.3     
  38 H38           -2.5396     0.5718     0.0287 H       
  39 H39           -7.6886    -2.2829    -0.4499 H       
  40 H40           -7.3292    -0.5396    -0.4426 H       
  41 H41           -5.7792    -3.9434     0.0272 H       
  42 H42            1.5766    -2.5413    -0.0267 H       
  43 H43            4.0233    -2.5255    -0.0510 H       
  44 H44            4.0647     1.7322    -0.0272 H       
  45 H45            5.9691     0.4974    -2.2890 H       
  46 H46            7.4578    -0.4075    -1.9237 H       
  47 H47            5.9539    -1.2825    -2.2991 H       
  48 H48            0.6699     3.7753     0.5302 H       
  49 H49            2.4132     3.4166     0.5120 H       
  50 H50            0.6376     3.4954    -1.9686 H       
  51 H51            0.8619     5.7435    -0.9860 H       
  52 H52            2.6251     5.5293    -0.8540 H       
  53 H53            1.0005     5.5377    -3.4392 H       
  54 H54            2.0791     6.8360    -2.8736 H       
  55 H55            1.9896     3.4261    -4.1219 H       
  56 H56            3.7588     3.2501    -4.0329 H       
  57 H57            3.6612     3.3174    -1.5691 H       
  58 H58            2.6037     2.0248    -2.1883 H       
  59 H59           -8.2667    -5.1272     3.6270 H       
  60 H60           -6.5683    -4.7617     4.0145 H       
  61 H61           -7.8113    -4.6671     5.2851 H       
  62 H62           -7.1827    -2.4059     4.4849 H       
  63 H63           -8.8811    -2.7714     4.0974 H       
  64 H64          -11.4069     0.6458     2.0548 H       
  65 H65          -11.9061    -1.0599     2.1529 H       
  66 H66          -11.9586    -0.0322     3.6053 H       
  67 H67           -9.9871    -1.5354     3.6495 H       
  68 H68           -9.4879     0.1703     3.5513 H       
@<TRIPOS>BOND
   1    1    2 2
   2    1   16 1
   3    2    3 1
   4    2   14 1
   5    3    4 am
   6    3    5 2
   7    4    6 1
   8    4   38 1
   9    6   10 2
  10    6   11 1
  11    7    8 2
  12    7   32 1
  13    7   35 1
  14    7    9 1
  15    9   13 1
  16    9   39 1
  17    9   40 1
  18   10   13 1
  19   11   12 1
  20   12   13 2
  21   12   41 1
  22   14   15 ar
  23   14   17 ar
  24   15   16 1
  25   15   20 ar
  26   16   25 1
  27   17   18 ar
  28   17   42 1
  29   18   19 ar
  30   18   43 1
  31   19   20 ar
  32   19   21 1
  33   20   44 1
  34   21   22 2
  35   21   23 2
  36   21   24 1
  37   24   45 1
  38   24   46 1
  39   24   47 1
  40   25   26 1
  41   25   48 1
  42   25   49 1
  43   26   27 1
  44   26   31 1
  45   26   50 1
  46   27   28 1
  47   27   51 1
  48   27   52 1
  49   28   29 1
  50   28   53 1
  51   28   54 1
  52   29   30 1
  53   30   31 1
  54   30   55 1
  55   30   56 1
  56   31   57 1
  57   31   58 1
  58   32   34 1
  59   33   34 1
  60   33   59 1
  61   33   60 1
  62   33   61 1
  63   34   62 1
  64   34   63 1
  65   35   37 1
  66   36   37 1
  67   36   64 1
  68   36   65 1
  69   36   66 1
  70   37   67 1
  71   37   68 1

#	End of record

