#	Name: ASD09940001
#	Creating user name:	WinNT
#	Creation time:	15. 06. 2019 21:24

#	Modifying user name:	WinNT
#	Modification time:	15. 06. 2019 21:24

#	Program:	/corina/corina34_cracker 3.40 0067  02.08.2006

@<TRIPOS>MOLECULE
ASD09940001
  39   41    0    0    0
SMALL
NO_CHARGES


@<TRIPOS>ATOM
   1 C1            -0.0313     1.3661    -0.2080 C.ar    
   2 C2            -0.0782     0.0017    -0.4235 C.ar    
   3 C3            -1.2516    -0.6938    -0.1983 C.ar    
   4 C4            -2.3778    -0.0247     0.2427 C.ar    
   5 C5            -2.3306     1.3400     0.4591 C.ar    
   6 C6            -1.1562     2.0345     0.2382 C.ar    
   7 C7             1.2478     2.1242    -0.4535 C.3     
   8 C8            -1.3030    -2.1813    -0.4342 C.3     
   9 C9            -3.6571    -0.7826     0.4873 C.3     
  10 C10           -4.1426    -0.5082     1.9145 C.3     
  11 C11           -4.7104    -0.3388    -0.5326 C.3     
  12 C12           -6.0372    -0.9538    -0.1779 C.2     
  13 C13           -6.3403    -1.4305     1.0732 C.2     
  14 C14           -5.3697    -1.3677     2.1772 C.2     
  15 O15           -5.5362    -1.9599     3.2230 O.2     
  16 O16           -7.1145    -1.1533    -0.9349 O.3     
  17 C17           -8.0577    -1.7397    -0.1761 C.2     
  18 N18           -7.5987    -1.9095     1.0326 N.2     
  19 C19           -9.4317    -2.1385    -0.6495 C.3     
  20 C20          -10.4025    -0.9755    -0.4352 C.3     
  21 H21            0.8018    -0.5212    -0.7681 H       
  22 H22           -3.2106     1.8629     0.8034 H       
  23 H23           -1.1194     3.1006     0.4073 H       
  24 H24            1.2723     2.4705    -1.4868 H       
  25 H25            1.2969     2.9812     0.2182 H       
  26 H26            2.0994     1.4691    -0.2696 H       
  27 H27           -1.1209    -2.7046     0.5045 H       
  28 H28           -2.2861    -2.4546    -0.8177 H       
  29 H29           -0.5393    -2.4607    -1.1600 H       
  30 H30           -3.4708    -1.8501     0.3698 H       
  31 H31           -3.3565    -0.7635     2.6251 H       
  32 H32           -4.4032     0.5452     2.0175 H       
  33 H33           -4.7971     0.7476    -0.5167 H       
  34 H34           -4.4126    -0.6658    -1.5288 H       
  35 H35           -9.3924    -2.3884    -1.7097 H       
  36 H36           -9.7732    -3.0057    -0.0843 H       
  37 H37          -10.4417    -0.7257     0.6250 H       
  38 H38          -10.0610    -0.1084    -1.0005 H       
  39 H39          -11.3963    -1.2640    -0.7776 H       
@<TRIPOS>BOND
   1    1    2 ar
   2    1    7 1
   3    1    6 ar
   4    2    3 ar
   5    2   21 1
   6    3    4 ar
   7    3    8 1
   8    4    5 ar
   9    4    9 1
  10    5    6 ar
  11    5   22 1
  12    6   23 1
  13    7   24 1
  14    7   25 1
  15    7   26 1
  16    8   27 1
  17    8   28 1
  18    8   29 1
  19    9   10 1
  20    9   11 1
  21    9   30 1
  22   10   14 1
  23   10   31 1
  24   10   32 1
  25   11   12 1
  26   11   33 1
  27   11   34 1
  28   12   13 2
  29   12   16 1
  30   13   14 1
  31   13   18 1
  32   14   15 2
  33   16   17 1
  34   17   18 2
  35   17   19 1
  36   19   20 1
  37   19   35 1
  38   19   36 1
  39   20   37 1
  40   20   38 1
  41   20   39 1

#	End of record

