#	Name: ASD01141116
#	Creating user name:	WinNT
#	Creation time:	15. 06. 2019 19:01

#	Modifying user name:	WinNT
#	Modification time:	15. 06. 2019 19:01

#	Program:	/corina/corina34_cracker 3.40 0067  02.08.2006

@<TRIPOS>MOLECULE
ASD01141116
  65   69    0    0    0
SMALL
NO_CHARGES


@<TRIPOS>ATOM
   1 C1            -0.0121     1.5079    -0.0012 C.3     
   2 C2             0.0097    -0.0220    -0.0174 C.3     
   3 C3            -0.7273     1.9938     1.2612 C.3     
   4 C4            -0.7540     2.0186    -1.2372 C.3     
   5 C5             0.7255    -0.5098    -1.2782 C.3     
   6 C6             0.7485    -0.5357     1.2199 C.3     
   7 H7            -1.0128    -0.3997    -0.0113 H       
   8 C8             0.0128     1.4801     2.4977 C.3     
   9 C9            -0.8521     3.5398    -1.1948 C.3     
  10 C10           -0.0253     1.5348    -2.5004 C.3     
  11 H11           -1.7647     1.6105    -1.2351 H       
  12 C12           -0.0109     0.0056    -2.5164 C.3     
  13 C13            0.0304    -0.0497     2.4805 C.3     
  14 C14           -1.5109     4.0941    -2.4693 C.3     
  15 C15           -0.7942     2.0673    -3.6955 C.3     
  16 H16            0.9915     1.9272    -2.5121 H       
  17 O17           -1.3104    -0.5441     2.4856 O.3     
  18 C18           -0.6873     3.6158    -3.6480 C.3     
  19 C19           -0.1781     1.7697    -5.0684 C.3     
  20 H20           -1.8366     1.7518    -3.6507 H       
  21 C21            0.7743     4.0237    -3.4530 C.3     
  22 C22           -1.1412     4.0422    -5.0125 C.2     
  23 C23           -0.7664     2.9020    -5.9540 C.3     
  24 O24           -1.6912     5.0765    -5.3057 O.2     
  25 H25           -1.8261    -0.2745     3.2579 H       
  26 C26            1.4228     2.0389    -0.0114 C.3     
  27 H27           -1.4453     3.8350    -0.3293 H       
  28 O28            0.6577    -0.4522    -3.6935 O.3     
  29 C29            0.9572    -2.0952    -5.4139 C.ar    
  30 C30            2.1199    -2.8344    -5.3023 C.ar    
  31 C31            2.8238    -3.1911    -6.4373 C.ar    
  32 C32            2.3647    -2.8088    -7.6839 C.ar    
  33 C33            1.2015    -2.0703    -7.7956 C.ar    
  34 C34            0.4983    -1.7125    -6.6605 C.ar    
  35 C35            0.1865    -1.7117    -4.1769 C.3     
  36 H36           -0.7422     3.0836     1.2735 H       
  37 H37           -1.7499     1.6167     1.2672 H       
  38 H38            1.7492    -0.1355    -1.2825 H       
  39 H39            0.7376    -1.5997    -1.2904 H       
  40 H40            0.7637    -1.6255     1.2077 H       
  41 H41            1.7709    -0.1579     1.2156 H       
  42 H42            1.0354     1.8573     2.4919 H       
  43 H43           -0.4973     1.8267     3.3965 H       
  44 H44            0.1493     3.9593    -1.0995 H       
  45 H45           -1.0350    -0.3676    -2.5118 H       
  46 H46            0.5561    -0.4160     3.3623 H       
  47 H47           -2.5307     3.7186    -2.5529 H       
  48 H48           -1.5173     5.1837    -2.4394 H       
  49 H49            0.9091     1.8358    -5.0273 H       
  50 H50           -0.4941     0.7914    -5.4306 H       
  51 H51            1.1300     3.6528    -2.4917 H       
  52 H52            1.3801     3.5985    -4.2532 H       
  53 H53            0.8543     5.1106    -3.4752 H       
  54 H54           -0.0194     3.2409    -6.6717 H       
  55 H55           -1.6527     2.5439    -6.4779 H       
  56 H56            1.9320     1.6925    -0.9106 H       
  57 H57            1.4069     3.1288     0.0002 H       
  58 H58            1.9515     1.6739     0.8691 H       
  59 H59            2.4785    -3.1331    -4.3284 H       
  60 H60            3.7325    -3.7680    -6.3501 H       
  61 H61            2.9150    -3.0868    -8.5707 H       
  62 H62            0.8432    -1.7710    -8.7694 H       
  63 H63           -0.4100    -1.1348    -6.7476 H       
  64 H64            0.3297    -2.4722    -3.4093 H       
  65 H65           -0.8736    -1.6345    -4.4187 H       
@<TRIPOS>BOND
   1    1    2 1
   2    1   26 1
   3    1    3 1
   4    1    4 1
   5    2    5 1
   6    2    6 1
   7    2    7 1
   8    3    8 1
   9    3   36 1
  10    3   37 1
  11    4   10 1
  12    4    9 1
  13    4   11 1
  14    5   12 1
  15    5   38 1
  16    5   39 1
  17    6   13 1
  18    6   40 1
  19    6   41 1
  20    8   13 1
  21    8   42 1
  22    8   43 1
  23    9   14 1
  24    9   27 1
  25    9   44 1
  26   10   15 1
  27   10   16 1
  28   10   12 1
  29   12   28 1
  30   12   45 1
  31   13   17 1
  32   13   46 1
  33   14   18 1
  34   14   47 1
  35   14   48 1
  36   15   18 1
  37   15   19 1
  38   15   20 1
  39   17   25 1
  40   18   21 1
  41   18   22 1
  42   19   23 1
  43   19   49 1
  44   19   50 1
  45   21   51 1
  46   21   52 1
  47   21   53 1
  48   22   23 1
  49   22   24 2
  50   23   54 1
  51   23   55 1
  52   26   56 1
  53   26   57 1
  54   26   58 1
  55   28   35 1
  56   29   30 ar
  57   29   34 ar
  58   29   35 1
  59   30   31 ar
  60   30   59 1
  61   31   32 ar
  62   31   60 1
  63   32   33 ar
  64   32   61 1
  65   33   34 ar
  66   33   62 1
  67   34   63 1
  68   35   64 1
  69   35   65 1

#	End of record

