#	Name: ASD00431149
#	Creating user name:	WinNT
#	Creation time:	15. 06. 2019 18:35

#	Modifying user name:	WinNT
#	Modification time:	15. 06. 2019 18:35

#	Program:	/corina/corina34_cracker 3.40 0067  02.08.2006

@<TRIPOS>MOLECULE
ASD00431149
  47   49    0    0    0
SMALL
NO_CHARGES


@<TRIPOS>ATOM
   1 C1             0.2662     1.8798    -0.0070 C.2     
   2 C2             0.2757     0.3772    -0.1218 C.3     
   3 O3             1.3116     2.4873     0.0877 O.2     
   4 N4            -0.9037     2.5489    -0.0153 N.am    
   5 C5            -0.9129     4.0097     0.0963 C.3     
   6 C6            -0.7177     4.6282    -1.2894 C.3     
   7 O7            -3.4438     4.0270     0.3047 O.3     
   8 N8            -4.2997     4.5892     0.9547 N.2     
   9 C9            -3.7462     5.4325     1.7921 C.2     
  10 N10           -2.4068     5.3534     1.6093 N.2     
  11 C11           -2.2325     4.4616     0.6668 C.2     
  12 S12           -3.6954     7.4353     3.8731 S.3     
  13 C13           -5.2326     7.8925     4.4651 C.2     
  14 N14           -6.1663     7.2337     3.8498 N.2     
  15 C15           -5.7869     6.3762     2.9285 C.2     
  16 C16           -4.4506     6.3044     2.7529 C.2     
  17 O17           -5.4457     8.8108     5.4371 O.3     
  18 C18           -6.7310     9.1421     5.7316 C.ar    
  19 C19           -7.5725     8.2059     6.3147 C.ar    
  20 C20           -8.8782     8.5426     6.6138 C.ar    
  21 C21           -9.3482     9.8166     6.3308 C.ar    
  22 C22           -8.5071    10.7525     5.7474 C.ar    
  23 C23           -7.1994    10.4182     5.4543 C.ar    
  24 O24          -10.6338    10.1477     6.6248 O.3     
  25 C25          -11.0277    11.4994     6.3803 C.3     
  26 C26          -12.5473    11.5659     6.2149 C.3     
  27 C27          -10.6044    12.3756     7.5610 C.3     
  28 H28            0.2308    -0.0635     0.8741 H       
  29 H29           -0.5875     0.0518    -0.7024 H       
  30 H30            1.1905     0.0566    -0.6201 H       
  31 H31           -1.7396     2.0634    -0.0950 H       
  32 H32           -0.1043     4.3289     0.7539 H       
  33 H33            0.2367     4.3014    -1.7020 H       
  34 H34           -1.5263     4.3090    -1.9470 H       
  35 H35           -0.7245     5.7150    -1.2064 H       
  36 H36           -6.4853     5.7793     2.3607 H       
  37 H37           -7.2068     7.2138     6.5344 H       
  38 H38           -9.5333     7.8138     7.0677 H       
  39 H39           -8.8733    11.7442     5.5264 H       
  40 H40           -6.5431    11.1484     5.0045 H       
  41 H41          -10.5472    11.8590     5.4704 H       
  42 H42          -13.0279    11.2063     7.1248 H       
  43 H43          -12.8478    12.5969     6.0284 H       
  44 H44          -12.8489    10.9417     5.3738 H       
  45 H45          -11.0849    12.0161     8.4709 H       
  46 H46           -9.5218    12.3283     7.6788 H       
  47 H47          -10.9048    13.4066     7.3744 H       
@<TRIPOS>BOND
   1    1    2 1
   2    1    3 2
   3    1    4 am
   4    2   28 1
   5    2   29 1
   6    2   30 1
   7    4    5 1
   8    4   31 1
   9    5    6 1
  10    5   11 1
  11    5   32 1
  12    6   33 1
  13    6   34 1
  14    6   35 1
  15    7    8 1
  16    7   11 1
  17    8    9 2
  18    9   10 1
  19    9   16 1
  20   10   11 2
  21   12   13 1
  22   12   16 1
  23   13   14 2
  24   13   17 1
  25   14   15 1
  26   15   16 2
  27   15   36 1
  28   17   18 1
  29   18   19 ar
  30   18   23 ar
  31   19   20 ar
  32   19   37 1
  33   20   21 ar
  34   20   38 1
  35   21   22 ar
  36   21   24 1
  37   22   23 ar
  38   22   39 1
  39   23   40 1
  40   24   25 1
  41   25   26 1
  42   25   27 1
  43   25   41 1
  44   26   42 1
  45   26   43 1
  46   26   44 1
  47   27   45 1
  48   27   46 1
  49   27   47 1

#	End of record

