#	Name: ASD03180016
#	Creating user name:	WinNT
#	Creation time:	15. 06. 2019 20:33

#	Modifying user name:	WinNT
#	Modification time:	15. 06. 2019 20:33

#	Program:	/corina/corina34_cracker 3.40 0067  02.08.2006

@<TRIPOS>MOLECULE
ASD03180016
  51   53    0    0    0
SMALL
NO_CHARGES


@<TRIPOS>ATOM
   1 C1             7.4423     3.6361     1.7872 C.ar    
   2 C2             7.2004     4.9753     2.0347 C.ar    
   3 C3             5.9913     5.5385     1.6681 C.ar    
   4 C4             5.0255     4.7629     1.0548 C.ar    
   5 C5             5.2677     3.4244     0.8080 C.ar    
   6 C6             6.4760     2.8612     1.1738 C.ar    
   7 S7             4.0357     2.4359     0.0271 S.o2    
   8 O8             2.7828     3.0142     0.3663 O.2     
   9 N9             4.2139     2.6315    -1.6076 N.am    
  10 O10            4.3690     1.0834     0.3081 O.2     
  11 C11            3.4086     3.6279    -2.3181 C.3     
  12 C12            5.1768     1.8082    -2.3432 C.3     
  13 C13            4.4590     0.6497    -2.9865 C.ar    
  14 C14            4.1908     4.9100    -2.4426 C.2     
  15 N15            3.6459     5.9742    -3.0646 N.am    
  16 C16            4.4075     7.1325    -3.2679 C.ar    
  17 O17            5.3108     4.9841    -1.9829 O.2     
  18 C18            4.0089     0.7529    -4.2894 C.ar    
  19 C19            3.3505    -0.3097    -4.8795 C.ar    
  20 C20            3.1426    -1.4758    -4.1667 C.ar    
  21 C21            3.5934    -1.5793    -2.8641 C.ar    
  22 C22            4.2557    -0.5182    -2.2755 C.ar    
  23 C23            4.2310     7.8863    -4.4205 C.ar    
  24 C24            4.9816     9.0281    -4.6201 C.ar    
  25 C25            5.9118     9.4220    -3.6693 C.ar    
  26 C26            6.0890     8.6691    -2.5178 C.ar    
  27 C27            5.3349     7.5302    -2.3143 C.ar    
  28 O28            6.6506    10.5463    -3.8665 O.3     
  29 C29            7.5896    10.8927    -2.8465 C.3     
  30 Br30           8.5218     6.0358     2.8744 Br      
  31 H31            8.3879     3.1970     2.0692 H       
  32 H32            5.8018     6.5840     1.8615 H       
  33 H33            4.0815     5.2026     0.7686 H       
  34 H34            6.6649     1.8156     0.9805 H       
  35 H35            3.1626     3.2544    -3.3122 H       
  36 H36            2.4896     3.8154    -1.7628 H       
  37 H37            5.6566     2.4114    -3.1139 H       
  38 H38            5.9325     1.4302    -1.6546 H       
  39 H39            2.7264     5.9382    -3.3715 H       
  40 H40            4.1714     1.6639    -4.8463 H       
  41 H41            2.9982    -0.2288    -5.8972 H       
  42 H42            2.6275    -2.3057    -4.6275 H       
  43 H43            3.4307    -2.4902    -2.3071 H       
  44 H44            4.6112    -0.6005    -1.2590 H       
  45 H45            3.5071     7.5796    -5.1610 H       
  46 H46            4.8447     9.6143    -5.5167 H       
  47 H47            6.8138     8.9759    -1.7783 H       
  48 H48            5.4696     6.9468    -1.4155 H       
  49 H49            7.0625    11.0499    -1.9055 H       
  50 H50            8.3117    10.0848    -2.7279 H       
  51 H51            8.1110    11.8076    -3.1281 H       
@<TRIPOS>BOND
   1    1    2 ar
   2    1    6 ar
   3    1   31 1
   4    2    3 ar
   5    2   30 1
   6    3    4 ar
   7    3   32 1
   8    4    5 ar
   9    4   33 1
  10    5    6 ar
  11    5    7 1
  12    6   34 1
  13    7    8 2
  14    7    9 am
  15    7   10 2
  16    9   11 1
  17    9   12 1
  18   11   14 1
  19   11   35 1
  20   11   36 1
  21   12   13 1
  22   12   37 1
  23   12   38 1
  24   13   18 ar
  25   13   22 ar
  26   14   15 am
  27   14   17 2
  28   15   16 1
  29   15   39 1
  30   16   23 ar
  31   16   27 ar
  32   18   19 ar
  33   18   40 1
  34   19   20 ar
  35   19   41 1
  36   20   21 ar
  37   20   42 1
  38   21   22 ar
  39   21   43 1
  40   22   44 1
  41   23   24 ar
  42   23   45 1
  43   24   25 ar
  44   24   46 1
  45   25   26 ar
  46   25   28 1
  47   26   27 ar
  48   26   47 1
  49   27   48 1
  50   28   29 1
  51   29   49 1
  52   29   50 1
  53   29   51 1

#	End of record

