#	Name: ASD01841044
#	Creating user name:	WinNT
#	Creation time:	15. 06. 2019 19:38

#	Modifying user name:	WinNT
#	Modification time:	15. 06. 2019 19:38

#	Program:	/corina/corina34_cracker 3.40 0067  02.08.2006

@<TRIPOS>MOLECULE
ASD01841044
  35   37    0    0    0
SMALL
NO_CHARGES


@<TRIPOS>ATOM
   1 C1            -0.0180     1.4738     0.0101 C.2     
   2 C2             0.0021    -0.0041     0.0020 C.ar    
   3 O3             1.0263     2.0958     0.0035 O.2     
   4 N4            -1.1942     2.1318     0.0193 N.am    
   5 S5            -2.6697     4.5008     0.0392 S.3     
   6 C6            -1.2130     3.5167     0.0269 C.2     
   7 N7            -0.1661     4.2661     0.0265 N.2     
   8 C8            -0.3466     5.6022     0.0350 C.ar    
   9 C9            -1.6946     5.9684     0.0432 C.ar    
  10 C10           -2.0608     7.3134     0.0521 C.ar    
  11 C11           -1.0962     8.2960     0.0530 C.ar    
  12 C12            0.2467     7.9502     0.0445 C.ar    
  13 C13            0.6285     6.6275     0.0364 C.ar    
  14 C14           -3.5190     7.6937     0.0605 C.3     
  15 O15            1.9490     6.3049     0.0286 O.3     
  16 C16            2.8814     7.3877     0.0306 C.3     
  17 C17            1.2187    -0.6880    -0.0133 C.ar    
  18 C18            1.2314    -2.0699    -0.0209 C.ar    
  19 C19            0.0397    -2.7762    -0.0133 C.ar    
  20 C20           -1.1708    -2.1026     0.0019 C.ar    
  21 C21           -1.1954    -0.7209     0.0154 C.ar    
  22 F22           -2.3292    -2.7977     0.0091 F       
  23 F23            2.4082    -2.7332    -0.0361 F       
  24 H24           -2.0276     1.6354     0.0206 H       
  25 H25           -1.3857     9.3365     0.0600 H       
  26 H26            0.9993     8.7248     0.0448 H       
  27 H27           -3.8662     7.7797     1.0901 H       
  28 H28           -3.6481     8.6494    -0.4476 H       
  29 H29           -4.0974     6.9271    -0.4552 H       
  30 H30            3.8972     6.9925     0.0237 H       
  31 H31            2.7251     8.0034    -0.8552 H       
  32 H32            2.7332     7.9932     0.9247 H       
  33 H33            2.1483    -0.1384    -0.0195 H       
  34 H34            0.0543    -3.8561    -0.0197 H       
  35 H35           -2.1396    -0.1968     0.0276 H       
@<TRIPOS>BOND
   1    1    2 1
   2    1    3 2
   3    1    4 am
   4    2   17 ar
   5    2   21 ar
   6    4    6 1
   7    4   24 1
   8    5    6 1
   9    5    9 1
  10    6    7 2
  11    7    8 1
  12    8    9 ar
  13    8   13 ar
  14    9   10 ar
  15   10   11 ar
  16   10   14 1
  17   11   12 ar
  18   11   25 1
  19   12   13 ar
  20   12   26 1
  21   13   15 1
  22   14   27 1
  23   14   28 1
  24   14   29 1
  25   15   16 1
  26   16   30 1
  27   16   31 1
  28   16   32 1
  29   17   18 ar
  30   17   33 1
  31   18   19 ar
  32   18   23 1
  33   19   20 ar
  34   19   34 1
  35   20   21 ar
  36   20   22 1
  37   21   35 1

#	End of record

