#	Name: ASD03331556
#	Creating user name:	WinNT
#	Creation time:	15. 06. 2019 20:39

#	Modifying user name:	WinNT
#	Modification time:	15. 06. 2019 20:39

#	Program:	/corina/corina34_cracker 3.40 0067  02.08.2006

@<TRIPOS>MOLECULE
ASD03331556
  59   61    0    0    0
SMALL
NO_CHARGES


@<TRIPOS>ATOM
   1 C1             0.1885     0.8419    -0.4360 C.ar    
   2 C2             0.3438    -0.5444    -0.4513 C.ar    
   3 C3             1.3746     1.7203    -0.3364 C.2     
   4 N4             1.4179     3.0403    -0.6795 N.pl3   
   5 C5             2.6913     3.4722    -0.4626 C.2     
   6 C6             3.3947     2.4202     0.0347 C.2     
   7 N7             2.5583     1.3608     0.1018 N.2     
   8 C8             0.3086     3.8625    -1.1688 C.3     
   9 C9             0.8628     5.0027    -2.0266 C.3     
  10 O10            1.1813     6.1233    -1.1995 O.3     
  11 C11            2.1779     5.8745    -0.2120 C.3     
  12 C12            3.1917     4.8621    -0.7551 C.3     
  13 C13            4.8129     2.4342     0.4345 C.2     
  14 O14            5.4637     3.4564     0.3312 O.2     
  15 N15            5.3888     1.3143     0.9147 N.am    
  16 C16            6.7988     1.3283     1.3122 C.3     
  17 C17            7.3608    -0.0669     1.2191 C.2     
  18 N18            8.6735    -0.2497     0.9745 N.am    
  19 O19            6.6318    -1.0252     1.3645 O.2     
  20 C20            6.9177     1.8310     2.7523 C.3     
  21 C21            6.0414     0.9722     3.6663 C.3     
  22 C22            9.2009    -1.6026     0.7801 C.3     
  23 C23           -0.7671    -1.3599    -0.5449 C.ar    
  24 C24           -2.0350    -0.8013    -0.6241 C.ar    
  25 C25           -2.1924     0.5751    -0.6092 C.ar    
  26 C26           -1.0887     1.3975    -0.5208 C.ar    
  27 C27            8.3755     1.7360     3.2069 C.3     
  28 C28            6.4551     3.2877     2.8238 C.3     
  29 F29           -0.6192    -2.7027    -0.5598 F       
  30 F30           -3.1191    -1.6021    -0.7164 F       
  31 C31           10.7070    -1.5304     0.5205 C.3     
  32 F32           11.2107    -2.8223     0.3348 F       
  33 H33            1.3306    -0.9791    -0.3903 H       
  34 H34           -0.3621     3.2482    -1.7695 H       
  35 H35           -0.2381     4.2771    -0.3218 H       
  36 H36            1.7627     4.6646    -2.5405 H       
  37 H37            0.1158     5.2974    -2.7636 H       
  38 H38            2.6890     6.8060     0.0312 H       
  39 H39            1.7079     5.4726     0.6856 H       
  40 H40            4.1556     5.0134    -0.2692 H       
  41 H41            3.2981     4.9931    -1.8319 H       
  42 H42            4.8697     0.4990     0.9971 H       
  43 H43            7.3566     1.9896     0.6492 H       
  44 H44            9.2690     0.5145     0.9271 H       
  45 H45            6.3710    -0.0656     3.6154 H       
  46 H46            6.1261     1.3303     4.6923 H       
  47 H47            5.0028     1.0399     3.3424 H       
  48 H48            9.0144    -2.1972     1.6743 H       
  49 H49            8.7069    -2.0659    -0.0740 H       
  50 H50           -3.1812     1.0050    -0.6711 H       
  51 H51           -1.2134     2.4702    -0.5094 H       
  52 H52            8.9915     2.3919     2.5917 H       
  53 H53            8.4511     2.0403     4.2509 H       
  54 H54            8.7225     0.7080     3.1021 H       
  55 H55            5.4166     3.3554     2.4999 H       
  56 H56            6.5398     3.6458     3.8498 H       
  57 H57            7.0794     3.8995     2.1727 H       
  58 H58           10.8935    -0.9357    -0.3738 H       
  59 H59           11.2011    -1.0670     1.3745 H       
@<TRIPOS>BOND
   1    1    2 ar
   2    1    3 1
   3    1   26 ar
   4    2   23 ar
   5    2   33 1
   6    3    4 1
   7    3    7 2
   8    4    5 1
   9    4    8 1
  10    5    6 2
  11    5   12 1
  12    6    7 1
  13    6   13 1
  14    8    9 1
  15    8   34 1
  16    8   35 1
  17    9   10 1
  18    9   36 1
  19    9   37 1
  20   10   11 1
  21   11   12 1
  22   11   38 1
  23   11   39 1
  24   12   40 1
  25   12   41 1
  26   13   14 2
  27   13   15 am
  28   15   16 1
  29   15   42 1
  30   16   20 1
  31   16   17 1
  32   16   43 1
  33   17   18 am
  34   17   19 2
  35   18   22 1
  36   18   44 1
  37   20   21 1
  38   20   27 1
  39   20   28 1
  40   21   45 1
  41   21   46 1
  42   21   47 1
  43   22   31 1
  44   22   48 1
  45   22   49 1
  46   23   24 ar
  47   23   29 1
  48   24   25 ar
  49   24   30 1
  50   25   26 ar
  51   25   50 1
  52   26   51 1
  53   27   52 1
  54   27   53 1
  55   27   54 1
  56   28   55 1
  57   28   56 1
  58   28   57 1
  59   31   32 1
  60   31   58 1
  61   31   59 1

#	End of record

