#	Name: ASD02500463
#	Creating user name:	WinNT
#	Creation time:	15. 06. 2019 20:22

#	Modifying user name:	WinNT
#	Modification time:	15. 06. 2019 20:22

#	Program:	/corina/corina34_cracker 3.40 0067  02.08.2006

@<TRIPOS>MOLECULE
ASD02500463
  67   71    0    0    0
SMALL
NO_CHARGES


@<TRIPOS>ATOM
   1 C1             1.3257     2.0016    -1.5841 C.2     
   2 C2             1.5922     0.5248    -1.7216 C.3     
   3 O3             0.9619     2.6416    -2.5422 O.2     
   4 O4             1.4871     2.6051    -0.3957 O.3     
   5 C5             1.3253     3.9543    -0.3617 C.ar    
   6 C6             0.0758     4.5104    -0.5957 C.ar    
   7 C7            -0.0860     5.8817    -0.5607 C.ar    
   8 C8             0.9959     6.7002    -0.2925 C.ar    
   9 C9             2.2419     6.1485    -0.0594 C.ar    
  10 C10            2.4077     4.7771    -0.0873 C.ar    
  11 C11           -1.4427     6.4864    -0.8153 C.3     
  12 N12           -2.1680     6.6147     0.4557 N.3     
  13 C13           -3.3903     7.4117     0.2862 C.3     
  14 C14           -4.2068     7.3705     1.5823 C.3     
  15 N15           -3.3400     7.7901     2.6940 N.am    
  16 C16           -2.0346     7.1297     2.8461 C.3     
  17 C17           -1.3037     7.1803     1.5003 C.3     
  18 C18           -3.7317     8.7539     3.5508 C.2     
  19 C19           -2.9022     9.0765     4.7273 C.ar    
  20 C20           -2.8432    10.3894     5.2040 C.ar    
  21 C21           -2.0685    10.6872     6.3016 C.ar    
  22 C22           -1.3440     9.6826     6.9373 C.ar    
  23 C23           -1.4003     8.3743     6.4648 C.ar    
  24 C24           -2.1781     8.0690     5.3713 C.ar    
  25 O25           -4.7687     9.3575     3.3541 O.2     
  26 S26           -0.6183     9.0196     9.3893 S.o2    
  27 O27           -0.4733     7.6834     8.9280 O.2     
  28 O28            0.2510     9.6102    10.3457 O.2     
  29 N29           -0.5621     9.9867     8.0462 N.am    
  30 N30           -1.9377    11.4603    10.5408 N.ar    
  31 C31           -2.3672    12.6073    11.0080 C.ar    
  32 C32           -3.6463    12.7487    11.5423 C.ar    
  33 C33           -4.4885    11.6745    11.5881 C.ar    
  34 C34           -4.0240    10.4444    11.0851 C.ar    
  35 C35           -4.8323     9.2967    11.0990 C.ar    
  36 C36           -4.3462     8.1252    10.6034 C.ar    
  37 C37           -3.0567     8.0502    10.0814 C.ar    
  38 C38           -2.2458     9.1430    10.0531 C.ar    
  39 C39           -2.7114    10.3702    10.5559 C.ar    
  40 H40            1.4042     0.2158    -2.7499 H       
  41 H41            2.6309     0.3175    -1.4641 H       
  42 H42            0.9344    -0.0272    -1.0503 H       
  43 H43           -0.7694     3.8717    -0.8055 H       
  44 H44            0.8673     7.7721    -0.2655 H       
  45 H45            3.0855     6.7899     0.1491 H       
  46 H46            3.3802     4.3464     0.1000 H       
  47 H47           -1.3225     7.4715    -1.2661 H       
  48 H48           -2.0059     5.8435    -1.4917 H       
  49 H49           -3.1231     8.4433     0.0572 H       
  50 H50           -3.9831     6.9993    -0.5303 H       
  51 H51           -5.0549     8.0505     1.5025 H       
  52 H52           -4.5629     6.3556     1.7586 H       
  53 H53           -1.4467     7.6504     3.6019 H       
  54 H54           -2.1820     6.0916     3.1440 H       
  55 H55           -0.3832     6.6001     1.5643 H       
  56 H56           -1.0655     8.2151     1.2544 H       
  57 H57           -3.4047    11.1692     4.7110 H       
  58 H58           -2.0222    11.7013     6.6701 H       
  59 H59           -0.8366     7.5973     6.9596 H       
  60 H60           -2.2254     7.0529     5.0083 H       
  61 H61            0.0163    10.7653     8.0330 H       
  62 H62           -1.7121    13.4654    10.9783 H       
  63 H63           -3.9713    13.7068    11.9201 H       
  64 H64           -5.4830    11.7661    11.9991 H       
  65 H65           -5.8337     9.3425    11.5008 H       
  66 H66           -4.9687     7.2427    10.6145 H       
  67 H67           -2.6938     7.1093     9.6949 H       
@<TRIPOS>BOND
   1    1    2 1
   2    1    3 2
   3    1    4 1
   4    2   40 1
   5    2   41 1
   6    2   42 1
   7    4    5 1
   8    5    6 ar
   9    5   10 ar
  10    6    7 ar
  11    6   43 1
  12    7    8 ar
  13    7   11 1
  14    8    9 ar
  15    8   44 1
  16    9   10 ar
  17    9   45 1
  18   10   46 1
  19   11   12 1
  20   11   47 1
  21   11   48 1
  22   12   13 1
  23   12   17 1
  24   13   14 1
  25   13   49 1
  26   13   50 1
  27   14   15 1
  28   14   51 1
  29   14   52 1
  30   15   16 1
  31   15   18 am
  32   16   17 1
  33   16   53 1
  34   16   54 1
  35   17   55 1
  36   17   56 1
  37   18   19 1
  38   18   25 2
  39   19   20 ar
  40   19   24 ar
  41   20   21 ar
  42   20   57 1
  43   21   22 ar
  44   21   58 1
  45   22   23 ar
  46   22   29 1
  47   23   24 ar
  48   23   59 1
  49   24   60 1
  50   26   27 2
  51   26   28 2
  52   26   29 am
  53   26   38 1
  54   29   61 1
  55   30   31 ar
  56   30   39 ar
  57   31   32 ar
  58   31   62 1
  59   32   33 ar
  60   32   63 1
  61   33   34 ar
  62   33   64 1
  63   34   35 ar
  64   34   39 ar
  65   35   36 ar
  66   35   65 1
  67   36   37 ar
  68   36   66 1
  69   37   38 ar
  70   37   67 1
  71   38   39 ar

#	End of record

