#	Name: ASD01885133
#	Creating user name:	WinNT
#	Creation time:	15. 06. 2019 19:49

#	Modifying user name:	WinNT
#	Modification time:	15. 06. 2019 19:49

#	Program:	/corina/corina34_cracker 3.40 0067  02.08.2006

@<TRIPOS>MOLECULE
ASD01885133
  57   61    0    0    0
SMALL
NO_CHARGES


@<TRIPOS>ATOM
   1 C1             0.0141     1.3557     0.2031 C.2     
   2 C2             1.3351    -0.6334     0.2453 C.2     
   3 C3             2.4159     0.1096    -0.2599 C.2     
   4 C4             2.2772     1.4272    -0.5167 C.2     
   5 N5             1.0881     2.0554    -0.2901 N.pl3   
   6 C6             0.6571     3.3362    -0.4483 C.2     
   7 N7            -0.5941     3.3800    -0.0695 N.2     
   8 N8            -0.9857     2.2153     0.3125 N.2     
   9 C9             1.4727     4.4934    -0.9647 C.3     
  10 C10            1.4960    -2.1045     0.5303 C.3     
  11 C11            1.3335     4.5771    -2.4630 C.ar    
  12 N12            1.7130    -2.8266    -0.7305 N.3     
  13 C13            2.2359    -4.1759    -0.4808 C.3     
  14 C14            2.5860    -4.8432    -1.8128 C.3     
  15 C15            1.3311    -4.9156    -2.6872 C.3     
  16 C16            0.7791    -3.5021    -2.8919 C.3     
  17 C17            0.4814    -2.8736    -1.5287 C.3     
  18 C18            1.6825    -5.5174    -4.0234 C.ar    
  19 C19            0.1434    -0.0197     0.4761 C.2     
  20 C20           -1.0248    -0.8024     1.0180 C.3     
  21 C21            1.0688    -6.6844    -4.4386 C.ar    
  22 C22            1.3911    -7.2365    -5.6643 C.ar    
  23 C23            2.3267    -6.6214    -6.4749 C.ar    
  24 C24            2.9397    -5.4539    -6.0601 C.ar    
  25 C25            2.6142    -4.8994    -4.8363 C.ar    
  26 F26           -0.8252    -1.0556     2.3794 F       
  27 F27           -2.2003    -0.0630     0.8487 F       
  28 F28           -1.1334    -2.0152     0.3291 F       
  29 C29            1.5027     3.5484    -4.5172 C.ar    
  30 N30            1.6105     3.5216    -3.2031 N.ar    
  31 C31            0.9114     5.7577    -3.0450 C.ar    
  32 C32            0.7862     5.8240    -4.4240 C.ar    
  33 C33            1.0916     4.6952    -5.1694 C.ar    
  34 H34            3.3627    -0.3765    -0.4432 H       
  35 H35            3.1144     1.9886    -0.9045 H       
  36 H36            1.1154     5.4195    -0.5144 H       
  37 H37            2.5207     4.3439    -0.7050 H       
  38 H38            2.3522    -2.2557     1.1876 H       
  39 H39            0.5952    -2.4814     1.0145 H       
  40 H40            3.1304    -4.1099     0.1386 H       
  41 H41            1.4802    -4.7685     0.0348 H       
  42 H42            3.3516    -4.2585    -2.3226 H       
  43 H43            2.9594    -5.8505    -1.6281 H       
  44 H44            0.5793    -5.5325    -2.1951 H       
  45 H45            1.5163    -2.8962    -3.4187 H       
  46 H46           -0.1385    -3.5512    -3.4782 H       
  47 H47           -0.2661    -3.4724    -1.0082 H       
  48 H48            0.1015    -1.8618    -1.6704 H       
  49 H49            0.3379    -7.1651    -3.8053 H       
  50 H50            0.9122    -8.1487    -5.9884 H       
  51 H51            2.5790    -7.0531    -7.4322 H       
  52 H52            3.6709    -4.9734    -6.6933 H       
  53 H53            3.0931    -3.9873    -4.5122 H       
  54 H54            1.7387     2.6640    -5.0903 H       
  55 H55            0.6817     6.6174    -2.4331 H       
  56 H56            0.4583     6.7330    -4.9063 H       
  57 H57            1.0055     4.7111    -6.2459 H       
@<TRIPOS>BOND
   1    1   19 1
   2    1    5 1
   3    1    8 2
   4    2    3 1
   5    2   10 1
   6    2   19 2
   7    3    4 2
   8    3   34 1
   9    4    5 1
  10    4   35 1
  11    5    6 1
  12    6    7 2
  13    6    9 1
  14    7    8 1
  15    9   11 1
  16    9   36 1
  17    9   37 1
  18   10   12 1
  19   10   38 1
  20   10   39 1
  21   11   31 ar
  22   11   30 ar
  23   12   13 1
  24   12   17 1
  25   13   14 1
  26   13   40 1
  27   13   41 1
  28   14   15 1
  29   14   42 1
  30   14   43 1
  31   15   16 1
  32   15   18 1
  33   15   44 1
  34   16   17 1
  35   16   45 1
  36   16   46 1
  37   17   47 1
  38   17   48 1
  39   18   21 ar
  40   18   25 ar
  41   19   20 1
  42   20   26 1
  43   20   27 1
  44   20   28 1
  45   21   22 ar
  46   21   49 1
  47   22   23 ar
  48   22   50 1
  49   23   24 ar
  50   23   51 1
  51   24   25 ar
  52   24   52 1
  53   25   53 1
  54   29   30 ar
  55   29   33 ar
  56   29   54 1
  57   31   32 ar
  58   31   55 1
  59   32   33 ar
  60   32   56 1
  61   33   57 1

#	End of record

