#	Name: ASD09750004
#	Creating user name:	WinNT
#	Creation time:	15. 06. 2019 21:23

#	Modifying user name:	WinNT
#	Modification time:	15. 06. 2019 21:23

#	Program:	/corina/corina34_cracker 3.40 0067  02.08.2006

@<TRIPOS>MOLECULE
ASD09750004
  84   89    0    0    0
SMALL
NO_CHARGES


@<TRIPOS>ATOM
   1 C1             3.2323     1.4439     1.1363 C.ar    
   2 C2             3.2511     0.0538     1.1289 C.ar    
   3 C3             2.0734    -0.6664     1.1376 C.ar    
   4 C4             0.8410     0.0210     1.1543 C.ar    
   5 C5             0.8355     1.4381     1.1617 C.ar    
   6 C6             2.0558     2.1320     1.1576 C.ar    
   7 C7            -0.3790    -0.6771     1.1631 C.ar    
   8 C8            -1.5765     0.0400     1.1791 C.ar    
   9 C9            -1.5618     1.4477     1.1859 C.ar    
  10 C10           -0.3907     2.1316     1.1788 C.ar    
  11 S11            4.7547     2.3310     1.1254 S.o2    
  12 O12            4.5170     3.5807     1.8308 O.co2   
  13 O13            5.7314     1.4963     1.8075 O.co2   
  14 O14            5.1028     2.5494    -0.2700 O.co2   
  15 N15            2.1012    -2.0576     1.1296 N.pl3   
  16 O16           -0.3925    -2.0328     1.1556 O.3     
  17 N17           -2.7649    -0.6254     1.1877 N.2     
  18 S18           -3.0852     2.3328     1.2056 S.o2    
  19 O19           -3.4338     2.5367     2.6030 O.co2   
  20 O20           -2.8489     3.5900     0.5129 O.co2   
  21 O21           -4.0609     1.5039     0.5148 O.co2   
  22 N22           -2.7819    -1.9152     1.1811 N.2     
  23 C23           -3.9717    -2.5814     1.1898 C.ar    
  24 C24           -3.9919    -3.9855     1.1826 C.ar    
  25 O25           -2.8273    -4.6835     1.1670 O.3     
  26 C26           -2.9255    -6.1091     1.1605 C.3     
  27 C27           -5.2013    -4.6545     1.1919 C.ar    
  28 C28           -6.3950    -3.9332     1.2084 C.ar    
  29 C29           -6.3705    -2.5365     1.2151 C.ar    
  30 C30           -5.1745    -1.8675     1.2117 C.ar    
  31 C31           -7.6913    -4.6497     1.2184 C.ar    
  32 C32           -7.7158    -6.0463     1.2113 C.ar    
  33 C33           -8.9117    -6.7154     1.2201 C.ar    
  34 C34          -10.1146    -6.0015     1.2366 C.ar    
  35 C35          -10.0943    -4.5974     1.2443 C.ar    
  36 C36           -8.8849    -3.9285     1.2407 C.ar    
  37 O37          -11.2589    -3.8994     1.2598 O.3     
  38 C38          -11.1607    -2.4737     1.2668 C.3     
  39 N39          -11.3044    -6.6677     1.2449 N.2     
  40 N40          -11.3214    -7.9575     1.2374 N.2     
  41 C41          -12.5098    -8.6229     1.2456 C.ar    
  42 C42          -12.5245   -10.0306     1.2374 C.ar    
  43 C43          -13.6956   -10.7145     1.2453 C.ar    
  44 C44          -14.9218   -10.0210     1.2624 C.ar    
  45 C45          -14.9273    -8.6040     1.2714 C.ar    
  46 C46          -13.7072    -7.9058     1.2680 C.ar    
  47 S47          -11.0011   -10.9157     1.2160 S.o2    
  48 O48          -10.6237   -11.1346     2.6037 O.co2   
  49 O49          -11.2518   -12.1653     0.5148 O.co2   
  50 O50          -10.0399   -10.0792     0.5143 O.co2   
  51 O51          -13.6937    -6.5502     1.2764 O.3     
  52 C52          -16.1420   -10.7149     1.2703 C.ar    
  53 C53          -17.3186   -10.0268     1.2864 C.ar    
  54 C54          -17.3374    -8.6367     1.2950 C.ar    
  55 C55          -16.1597    -7.9165     1.2881 C.ar    
  56 N56          -16.1874    -6.5253     1.2972 N.pl3   
  57 S57          -18.8410   -10.9138     1.2961 S.o2    
  58 O58          -19.8176   -10.0784     0.6147 O.co2   
  59 O59          -18.6031   -12.1628     0.5893 O.co2   
  60 O60          -19.1894   -11.1338     2.6911 O.co2   
  61 H61            4.1966    -0.4679     1.1158 H       
  62 H62            2.0623     3.2119     1.1632 H       
  63 H63           -0.3982     3.2116     1.1846 H       
  64 H64            2.8563    -2.5298     1.5140 H       
  65 H65            1.3655    -2.5551     0.7396 H       
  66 H66           -0.3873    -2.4310     2.0368 H       
  67 H67           -1.9253    -6.5422     1.1480 H       
  68 H68           -3.4539    -6.4410     2.0542 H       
  69 H69           -3.4722    -6.4317     0.2744 H       
  70 H70           -5.2220    -5.7342     1.1861 H       
  71 H71           -7.2972    -1.9821     1.2271 H       
  72 H72           -5.1607    -0.7876     1.2169 H       
  73 H73           -6.7891    -6.6008     1.1986 H       
  74 H74           -8.9255    -7.7953     1.2138 H       
  75 H75           -8.8642    -2.8487     1.2465 H       
  76 H76          -12.1610    -2.0407     1.2792 H       
  77 H77          -10.6143    -2.1515     2.1532 H       
  78 H78          -10.6321    -2.1416     0.3733 H       
  79 H79          -13.6881   -11.7944     1.2381 H       
  80 H80          -13.6841    -6.1624     2.1622 H       
  81 H81          -16.1486   -11.7948     1.2631 H       
  82 H82          -18.2829    -8.1150     1.3071 H       
  83 H83          -16.9347    -6.0578     1.7021 H       
  84 H84          -15.4596    -6.0231     0.8987 H       
@<TRIPOS>BOND
   1    1    2 ar
   2    1   11 1
   3    1    6 ar
   4    2    3 ar
   5    2   61 1
   6    3    4 ar
   7    3   15 1
   8    4    5 ar
   9    4    7 ar
  10    5    6 ar
  11    5   10 ar
  12    6   62 1
  13    7    8 ar
  14    7   16 1
  15    8    9 ar
  16    8   17 1
  17    9   10 ar
  18    9   18 1
  19   10   63 1
  20   11   12 ar
  21   11   13 ar
  22   11   14 ar
  23   15   64 1
  24   15   65 1
  25   16   66 1
  26   17   22 2
  27   18   19 ar
  28   18   20 ar
  29   18   21 ar
  30   22   23 1
  31   23   24 ar
  32   23   30 ar
  33   24   25 1
  34   24   27 ar
  35   25   26 1
  36   26   67 1
  37   26   68 1
  38   26   69 1
  39   27   28 ar
  40   27   70 1
  41   28   29 ar
  42   28   31 1
  43   29   30 ar
  44   29   71 1
  45   30   72 1
  46   31   32 ar
  47   31   36 ar
  48   32   33 ar
  49   32   73 1
  50   33   34 ar
  51   33   74 1
  52   34   35 ar
  53   34   39 1
  54   35   36 ar
  55   35   37 1
  56   36   75 1
  57   37   38 1
  58   38   76 1
  59   38   77 1
  60   38   78 1
  61   39   40 2
  62   40   41 1
  63   41   42 ar
  64   41   46 ar
  65   42   43 ar
  66   42   47 1
  67   43   44 ar
  68   43   79 1
  69   44   45 ar
  70   44   52 ar
  71   45   46 ar
  72   45   55 ar
  73   46   51 1
  74   47   48 ar
  75   47   49 ar
  76   47   50 ar
  77   51   80 1
  78   52   53 ar
  79   52   81 1
  80   53   54 ar
  81   53   57 1
  82   54   55 ar
  83   54   82 1
  84   55   56 1
  85   56   83 1
  86   56   84 1
  87   57   58 ar
  88   57   59 ar
  89   57   60 ar

#	End of record

