#	Name: ASD01830028
#	Creating user name:	WinNT
#	Creation time:	15. 06. 2019 19:36

#	Modifying user name:	WinNT
#	Modification time:	15. 06. 2019 19:36

#	Program:	/corina/corina34_cracker 3.40 0067  02.08.2006

@<TRIPOS>MOLECULE
ASD01830028
  58   64    0    0    0
SMALL
NO_CHARGES


@<TRIPOS>ATOM
   1 N1            -0.0162     1.3442     0.0094 N.am    
   2 C2             0.0021    -0.0041     0.0020 C.2     
   3 C3            -1.1945    -0.7798     0.4739 C.3     
   4 C4            -2.1043    -0.0197     1.4368 C.3     
   5 C5            -1.7225     1.4326     1.5563 C.3     
   6 C6            -1.3299     2.0294     0.2155 C.3     
   7 C7            -2.6032     2.3271     2.3783 C.3     
   8 C8            -1.8031     3.6108     2.6639 C.3     
   9 C9            -1.6063     4.3308     1.3463 C.3     
  10 C10           -1.0099     3.5085     0.2258 C.3     
  11 C11            0.9906     2.2820     0.0049 C.ar    
  12 C12            0.4908     3.5803     0.1568 C.ar    
  13 C13            1.3177     4.6876     0.2113 C.ar    
  14 C14            2.6866     4.4678     0.0896 C.ar    
  15 C15            3.1952     3.1866    -0.0799 C.ar    
  16 C16            2.3690     2.0729    -0.1250 C.ar    
  17 O17            0.9884    -0.5927    -0.3876 O.2     
  18 N18           -2.8694     4.8956     0.8551 N.4     
  19 C19           -3.8436     2.7026     1.6122 C.2     
  20 C20           -4.0100     4.0007     0.9102 C.3     
  21 C21           -1.5496     4.1888    -1.0608 C.3     
  22 O22           -3.4595    -0.1673     0.9996 O.3     
  23 C23           -4.7515     1.7663     1.4592 C.2     
  24 C24           -4.4470     0.3585     1.8915 C.3     
  25 H25           -0.7859     1.4134     2.1135 H       
  26 H26           -2.8657     1.8344     3.3144 H       
  27 H27           -2.0201    -0.4788     2.4219 H       
  28 H28           -2.0480     1.7701    -0.5625 H       
  29 H29           -0.9354     5.1704     1.5282 H       
  30 C30           -2.6347     5.1704    -0.5905 C.3     
  31 O31            3.5407     5.5258     0.1370 O.3     
  32 C32            2.9612     6.8202     0.3125 C.3     
  33 O33            4.5390     3.0193    -0.2041 O.3     
  34 C34            5.0132     1.6823    -0.3764 C.3     
  35 N35           -3.1706     6.1280     1.5656 N.3     
  36 H36           -1.7812    -1.0728    -0.3967 H       
  37 H37           -0.8452    -1.6849     0.9707 H       
  38 H38           -2.3583     4.2468     3.3534 H       
  39 H39           -0.8347     3.3550     3.0938 H       
  40 H40            0.9175     5.6821     0.3427 H       
  41 H41            2.7742     1.0805    -0.2564 H       
  42 H42           -4.8290     4.5357     1.3908 H       
  43 H43           -4.3147     3.7876    -0.1145 H       
  44 H44           -0.7481     4.7279    -1.5657 H       
  45 H45           -1.9806     3.4426    -1.7283 H       
  46 H46           -5.7113     2.0059     1.0260 H       
  47 H47           -5.3515    -0.2476     1.8398 H       
  48 H48           -4.0606     0.3604     2.9107 H       
  49 H49           -3.5531     5.0077    -1.1546 H       
  50 H50           -2.2921     6.1965    -0.7238 H       
  51 H51            3.7503     7.5718     0.3330 H       
  52 H52            2.2817     7.0291    -0.5138 H       
  53 H53            2.4095     6.8468     1.2522 H       
  54 H54            4.7213     1.0796     0.4836 H       
  55 H55            4.5801     1.2572    -1.2819 H       
  56 H56            6.0997     1.6904    -0.4625 H       
  57 H57           -4.0367     6.5305     1.2402 H       
  58 H58           -3.1954     5.9739     2.5624 H       
@<TRIPOS>BOND
   1    1    2 am
   2    1   11 1
   3    1    6 1
   4    2    3 1
   5    2   17 2
   6    3    4 1
   7    3   36 1
   8    3   37 1
   9    4    5 1
  10    4   22 1
  11    4   27 1
  12    5    6 1
  13    5   25 1
  14    5    7 1
  15    6   10 1
  16    6   28 1
  17    7    8 1
  18    7   19 1
  19    7   26 1
  20    8    9 1
  21    8   38 1
  22    8   39 1
  23    9   10 1
  24    9   18 1
  25    9   29 1
  26   10   21 1
  27   10   12 1
  28   11   12 ar
  29   11   16 ar
  30   12   13 ar
  31   13   14 ar
  32   13   40 1
  33   14   15 ar
  34   14   31 1
  35   15   16 ar
  36   15   33 1
  37   16   41 1
  38   18   20 1
  39   18   30 1
  40   18   35 1
  41   19   23 2
  42   19   20 1
  43   20   42 1
  44   20   43 1
  45   21   30 1
  46   21   44 1
  47   21   45 1
  48   22   24 1
  49   23   24 1
  50   23   46 1
  51   24   47 1
  52   24   48 1
  53   30   49 1
  54   30   50 1
  55   31   32 1
  56   32   51 1
  57   32   52 1
  58   32   53 1
  59   33   34 1
  60   34   54 1
  61   34   55 1
  62   34   56 1
  63   35   57 1
  64   35   58 1

#	End of record

