#	Name: ASD04880013
#	Creating user name:	WinNT
#	Creation time:	15. 06. 2019 20:52

#	Modifying user name:	WinNT
#	Modification time:	15. 06. 2019 20:52

#	Program:	/corina/corina34_cracker 3.40 0067  02.08.2006

@<TRIPOS>MOLECULE
ASD04880013
  46   48    0    0    0
SMALL
NO_CHARGES


@<TRIPOS>ATOM
   1 C1            -2.0975    -0.1147     0.6251 C.2     
   2 O2            -2.2333    -1.2902     0.9048 O.2     
   3 C3            -0.7966     0.3816     0.1295 C.ar    
   4 C4             0.3128    -0.4654     0.1035 C.ar    
   5 C5             1.5257     0.0051    -0.3615 C.ar    
   6 C6             1.6410     1.3147    -0.8007 C.ar    
   7 C7             0.5445     2.1572    -0.7767 C.ar    
   8 C8            -0.6736     1.6974    -0.3199 C.ar    
   9 F9             2.6010    -0.8123    -0.3878 F       
  10 N10           -3.1351     0.7347     0.7617 N.am    
  11 N11           -3.0813     2.1153     0.5819 N.2     
  12 C12           -4.2066     2.7147     0.7686 C.2     
  13 C13           -5.2649     1.6991     1.1358 C.3     
  14 C14           -4.5111     0.3545     1.1189 C.3     
  15 C15           -4.4280     4.1667     0.6440 C.ar    
  16 C16           -3.3688     5.0100     0.2976 C.ar    
  17 C17           -3.5805     6.3667     0.1823 C.ar    
  18 C18           -4.8441     6.8965     0.4099 C.ar    
  19 C19           -5.8999     6.0622     0.7545 C.ar    
  20 C20           -5.6989     4.7036     0.8665 C.ar    
  21 O21           -5.0480     8.2347     0.2956 O.3     
  22 C22           -6.3908     8.7012     0.4417 C.3     
  23 C23           -6.8878     8.3903     1.8549 C.3     
  24 C24           -6.4341    10.2124     0.2067 C.3     
  25 C25           -7.2882     8.0002    -0.5802 C.3     
  26 H26            0.2232    -1.4856     0.4464 H       
  27 H27            2.5911     1.6787    -1.1628 H       
  28 H28            0.6410     3.1766    -1.1200 H       
  29 H29           -1.5296     2.3558    -0.3060 H       
  30 H30           -5.6643     1.9050     2.1288 H       
  31 H31           -6.0641     1.6947     0.3946 H       
  32 H32           -4.9317    -0.3137     0.3676 H       
  33 H33           -4.5370    -0.1101     2.1046 H       
  34 H34           -2.3859     4.5990     0.1208 H       
  35 H35           -2.7624     7.0192    -0.0851 H       
  36 H36           -6.8807     6.4786     0.9309 H       
  37 H37           -6.5214     4.0551     1.1301 H       
  38 H38           -6.4654     9.1108     2.5553 H       
  39 H39           -7.9756     8.4543     1.8798 H       
  40 H40           -6.5765     7.3844     2.1365 H       
  41 H41           -6.0801    10.4339    -0.8001 H       
  42 H42           -7.4584    10.5682     0.3181 H       
  43 H43           -5.7948    10.7118     0.9347 H       
  44 H44           -7.1325     6.9230    -0.5221 H       
  45 H45           -8.3319     8.2287    -0.3644 H       
  46 H46           -7.0396     8.3497    -1.5823 H       
@<TRIPOS>BOND
   1    1    2 2
   2    1    3 1
   3    1   10 am
   4    3    4 ar
   5    3    8 ar
   6    4    5 ar
   7    4   26 1
   8    5    6 ar
   9    5    9 1
  10    6    7 ar
  11    6   27 1
  12    7    8 ar
  13    7   28 1
  14    8   29 1
  15   10   11 1
  16   10   14 1
  17   11   12 2
  18   12   13 1
  19   12   15 1
  20   13   14 1
  21   13   30 1
  22   13   31 1
  23   14   32 1
  24   14   33 1
  25   15   16 ar
  26   15   20 ar
  27   16   17 ar
  28   16   34 1
  29   17   18 ar
  30   17   35 1
  31   18   19 ar
  32   18   21 1
  33   19   20 ar
  34   19   36 1
  35   20   37 1
  36   21   22 1
  37   22   23 1
  38   22   25 1
  39   22   24 1
  40   23   38 1
  41   23   39 1
  42   23   40 1
  43   24   41 1
  44   24   42 1
  45   24   43 1
  46   25   44 1
  47   25   45 1
  48   25   46 1

#	End of record

