#	Name: ASD01190095
#	Creating user name:	WinNT
#	Creation time:	15. 06. 2019 19:07

#	Modifying user name:	WinNT
#	Modification time:	15. 06. 2019 19:07

#	Program:	/corina/corina34_cracker 3.40 0067  02.08.2006

@<TRIPOS>MOLECULE
ASD01190095
  75   80    0    0    0
SMALL
NO_CHARGES


@<TRIPOS>ATOM
   1 C1             0.0199     0.8253    -0.4248 C.3     
   2 C2            -0.4056     1.0283     1.0307 C.3     
   3 N3             0.1339    -4.6927    -1.4963 N.pl3   
   4 N4            -1.2384    -4.9543    -1.4270 N.2     
   5 C5            -1.8902    -3.8582    -1.1596 C.2     
   6 C6            -0.9164    -2.7780    -1.0369 C.ar    
   7 C7            -1.0119    -1.4086    -0.7655 C.ar    
   8 C8             0.1214    -0.6495    -0.7175 C.ar    
   9 C9             1.3677    -1.2236    -0.9363 C.ar    
  10 C10            1.4863    -2.5582    -1.2035 C.ar    
  11 C11            0.3479    -3.3577    -1.2584 C.ar    
  12 C12            1.1302    -5.6416    -1.7600 C.ar    
  13 C13            0.9955    -6.9407    -1.2883 C.ar    
  14 C14            1.9788    -7.8745    -1.5494 C.ar    
  15 C15            3.0987    -7.5162    -2.2810 C.ar    
  16 C16            3.2350    -6.2211    -2.7523 C.ar    
  17 C17            2.2513    -5.2858    -2.4983 C.ar    
  18 F18            4.0598    -8.4311    -2.5349 F       
  19 F19            0.5437     0.4487     1.8793 F       
  20 F20           -0.4998     2.3975     1.3024 F       
  21 F21           -1.6498     0.4245     1.2414 F       
  22 N22           -2.7949     2.5352    -2.0711 N.pl3   
  23 C23           -2.1092     2.1116    -0.9654 C.2     
  24 C24           -1.0027     1.4497    -1.3389 C.2     
  25 C25           -0.9778     1.4494    -2.8035 C.ar    
  26 C26           -0.1012     0.9317    -3.7592 C.ar    
  27 C27           -0.3672     1.1051    -5.0881 C.ar    
  28 C28           -1.5025     1.7921    -5.4963 C.ar    
  29 C29           -2.3803     2.3114    -4.5704 C.ar    
  30 C30           -2.1294     2.1463    -3.2120 C.ar    
  31 C31           -4.0530     3.2853    -2.0450 C.3     
  32 C32           -5.2283     2.3148    -2.1772 C.3     
  33 C33           -6.5422     3.0982    -2.1499 C.3     
  34 N34           -7.6707     2.1663    -2.2769 N.3     
  35 C35           -8.9515     2.8491    -2.0177 C.3     
  36 C36           -9.8387     2.6453    -3.2638 C.3     
  37 C37           -9.2273     1.3821    -3.9252 C.3     
  38 C38           -7.7187     1.5736    -3.6305 C.3     
  39 N39          -11.2342     2.4037    -2.8740 N.3     
  40 C40          -11.7941     3.5671    -2.1733 C.3     
  41 C41          -12.0527     2.0480    -4.0408 C.3     
  42 O42            1.2909     1.4421    -0.6400 O.3     
  43 H43           -2.9605    -3.7654    -1.0488 H       
  44 H44           -1.9770    -0.9548    -0.5951 H       
  45 H45            2.2536    -0.6071    -0.8951 H       
  46 H46            2.4609    -2.9919    -1.3721 H       
  47 H47            0.1225    -7.2205    -0.7174 H       
  48 H48            1.8746    -8.8849    -1.1824 H       
  49 H49            4.1093    -5.9436    -3.3224 H       
  50 H50            2.3556    -4.2772    -2.8702 H       
  51 H51           -2.4130     2.2844     0.0565 H       
  52 H52            0.7841     0.3964    -3.4491 H       
  53 H53            0.3113     0.7047    -5.8269 H       
  54 H54           -1.6991     1.9210    -6.5504 H       
  55 H55           -3.2605     2.8446    -4.8980 H       
  56 H56           -4.1335     3.8271    -1.1026 H       
  57 H57           -4.0712     3.9931    -2.8737 H       
  58 H58           -5.1478     1.7730    -3.1196 H       
  59 H59           -5.2100     1.6070    -1.3485 H       
  60 H60           -6.6227     3.6400    -1.2075 H       
  61 H61           -6.5605     3.8060    -2.9787 H       
  62 H62           -9.4343     2.4124    -1.1434 H       
  63 H63           -8.7785     3.9130    -1.8556 H       
  64 H64           -9.7671     3.5033    -3.9323 H       
  65 H65           -9.6048     0.4739    -3.4554 H       
  66 H66           -9.4174     1.3726    -4.9985 H       
  67 H67           -7.2731     2.2522    -4.3579 H       
  68 H68           -7.2047     0.6125    -3.6423 H       
  69 H69          -11.7599     4.4372    -2.8289 H       
  70 H70          -12.8279     3.3614    -1.8960 H       
  71 H71          -11.2097     3.7660    -1.2749 H       
  72 H72          -11.7173     1.0916    -4.4420 H       
  73 H73          -13.0978     1.9699    -3.7414 H       
  74 H74          -11.9503     2.8185    -4.8050 H       
  75 H75            1.6235     1.3528    -1.5436 H       
@<TRIPOS>BOND
   1    1    2 1
   2    1    8 1
   3    1   24 1
   4    1   42 1
   5    2   19 1
   6    2   20 1
   7    2   21 1
   8    3    4 1
   9    3   11 1
  10    3   12 1
  11    4    5 2
  12    5    6 1
  13    5   43 1
  14    6    7 ar
  15    6   11 ar
  16    7    8 ar
  17    7   44 1
  18    8    9 ar
  19    9   10 ar
  20    9   45 1
  21   10   11 ar
  22   10   46 1
  23   12   13 ar
  24   12   17 ar
  25   13   14 ar
  26   13   47 1
  27   14   15 ar
  28   14   48 1
  29   15   16 ar
  30   15   18 1
  31   16   17 ar
  32   16   49 1
  33   17   50 1
  34   22   23 1
  35   22   30 1
  36   22   31 1
  37   23   24 2
  38   23   51 1
  39   24   25 1
  40   25   26 ar
  41   25   30 ar
  42   26   27 ar
  43   26   52 1
  44   27   28 ar
  45   27   53 1
  46   28   29 ar
  47   28   54 1
  48   29   30 ar
  49   29   55 1
  50   31   32 1
  51   31   56 1
  52   31   57 1
  53   32   33 1
  54   32   58 1
  55   32   59 1
  56   33   34 1
  57   33   60 1
  58   33   61 1
  59   34   35 1
  60   34   38 1
  61   35   36 1
  62   35   62 1
  63   35   63 1
  64   36   37 1
  65   36   39 1
  66   36   64 1
  67   37   38 1
  68   37   65 1
  69   37   66 1
  70   38   67 1
  71   38   68 1
  72   39   40 1
  73   39   41 1
  74   40   69 1
  75   40   70 1
  76   40   71 1
  77   41   72 1
  78   41   73 1
  79   41   74 1
  80   42   75 1

#	End of record

