#	Name: ASD07300931
#	Creating user name:	WinNT
#	Creation time:	15. 06. 2019 21:10

#	Modifying user name:	WinNT
#	Modification time:	15. 06. 2019 21:10

#	Program:	/corina/corina34_cracker 3.40 0067  02.08.2006

@<TRIPOS>MOLECULE
ASD07300931
  48   52    0    0    0
SMALL
NO_CHARGES


@<TRIPOS>ATOM
   1 N1             0.1455     1.4916     0.0826 N.am    
   2 C2             0.0811     0.1439    -0.0612 C.2     
   3 N3             1.1345    -0.6049    -0.2088 N.2     
   4 C4             2.3736    -0.0891    -0.2295 C.2     
   5 C5             2.5402     1.2975    -0.0882 C.2     
   6 C6             1.3433     2.1222     0.0770 C.2     
   7 N7             3.6176    -0.6175    -0.3648 N.pl3   
   8 N8             4.5481     0.4278    -0.3084 N.2     
   9 C9             3.9216     1.5604    -0.1454 C.2     
  10 O10            1.4216     3.3313     0.2041 O.2     
  11 C11            3.9322    -2.0376    -0.5393 C.3     
  12 C12            4.5409    -2.2585    -1.9255 C.3     
  13 C13            4.8695    -3.7417    -2.1078 C.3     
  14 C14            5.8703    -4.1778    -1.0358 C.3     
  15 C15            5.2616    -3.9569     0.3503 C.3     
  16 C16            4.9330    -2.4737     0.5326 C.3     
  17 C17           -1.2736    -0.5161    -0.0491 C.3     
  18 C18           -1.3040    -1.8735    -0.7711 C.3     
  19 C19           -2.2170    -2.3678     0.3634 C.3     
  20 C20           -1.5713    -1.2877     1.2474 C.3     
  21 C21           -0.3339    -1.7576     1.9679 C.ar    
  22 N22           -0.1019    -1.3272     3.1918 N.ar    
  23 F23            6.1708    -5.5340    -1.2025 F       
  24 F24            7.0417    -3.4224    -1.1566 F       
  25 C25            0.9739    -1.7186     3.8555 C.ar    
  26 C26            1.8611    -2.5921     3.2466 C.ar    
  27 C27            1.5831    -3.0226     1.9589 C.ar    
  28 N28            0.4846    -2.5923     1.3593 N.ar    
  29 H29           -0.6705     2.0058     0.1859 H       
  30 H30            4.3839     2.5333    -0.0678 H       
  31 H31            3.0196    -2.6261    -0.4453 H       
  32 H32            3.8279    -1.9478    -2.6892 H       
  33 H33            5.4536    -1.6700    -2.0195 H       
  34 H34            3.9569    -4.3302    -2.0137 H       
  35 H35            5.3032    -3.8990    -3.0953 H       
  36 H36            4.3490    -4.5454     0.4444 H       
  37 H37            5.9746    -4.2676     1.1140 H       
  38 H38            5.8457    -1.8852     0.4386 H       
  39 H39            4.4994    -2.3164     1.5202 H       
  40 H40           -2.0753     0.1575    -0.3517 H       
  41 H41           -1.7952    -1.8399    -1.7436 H       
  42 H42           -0.3360    -2.3735    -0.8018 H       
  43 H43           -3.2774    -2.2010     0.1746 H       
  44 H44           -1.9987    -3.3853     0.6876 H       
  45 H45           -2.2783    -0.7812     1.9044 H       
  46 H46            1.1583    -1.3618     4.8581 H       
  47 H47            2.7479    -2.9288     3.7629 H       
  48 H48            2.2520    -3.7030     1.4529 H       
@<TRIPOS>BOND
   1    1    2 1
   2    1    6 am
   3    1   29 1
   4    2    3 2
   5    2   17 1
   6    3    4 1
   7    4    5 2
   8    4    7 1
   9    5    6 1
  10    5    9 1
  11    6   10 2
  12    7    8 1
  13    7   11 1
  14    8    9 2
  15    9   30 1
  16   11   12 1
  17   11   16 1
  18   11   31 1
  19   12   13 1
  20   12   32 1
  21   12   33 1
  22   13   14 1
  23   13   34 1
  24   13   35 1
  25   14   15 1
  26   14   23 1
  27   14   24 1
  28   15   16 1
  29   15   36 1
  30   15   37 1
  31   16   38 1
  32   16   39 1
  33   17   18 1
  34   17   20 1
  35   17   40 1
  36   18   19 1
  37   18   41 1
  38   18   42 1
  39   19   20 1
  40   19   43 1
  41   19   44 1
  42   20   21 1
  43   20   45 1
  44   21   22 ar
  45   21   28 ar
  46   22   25 ar
  47   25   26 ar
  48   25   46 1
  49   26   27 ar
  50   26   47 1
  51   27   28 ar
  52   27   48 1

#	End of record

