#	Name: ASD01209341
#	Creating user name:	WinNT
#	Creation time:	15. 06. 2019 19:11

#	Modifying user name:	WinNT
#	Modification time:	15. 06. 2019 19:11

#	Program:	/corina/corina34_cracker 3.40 0067  02.08.2006

@<TRIPOS>MOLECULE
ASD01209341
  64   67    0    0    0
SMALL
NO_CHARGES


@<TRIPOS>ATOM
   1 S1             7.9842    -8.4482    -3.3165 S.3     
   2 C2             6.6607    -8.6065    -4.4853 C.2     
   3 N3             6.9060    -7.7647    -5.4916 N.am    
   4 C4             7.9841    -6.9988    -5.4984 C.2     
   5 C5             8.8693    -7.1799    -4.2848 C.3     
   6 O6             5.7023    -9.3481    -4.3878 O.2     
   7 O7             8.2399    -6.2236    -6.3948 O.2     
   8 C8             5.9631    -7.6881    -6.6103 C.3     
   9 C9             4.9194    -6.6415    -6.3167 C.ar    
  10 C10            5.1270    -5.3307    -6.7036 C.ar    
  11 C11            4.1695    -4.3707    -6.4343 C.ar    
  12 C12            3.0043    -4.7215    -5.7785 C.ar    
  13 C13            2.7963    -6.0324    -5.3924 C.ar    
  14 C14            3.7518    -6.9933    -5.6656 C.ar    
  15 C15            1.8246    -3.5023    -3.9699 C.3     
  16 C16            1.9610    -3.6747    -5.4840 C.3     
  17 C17            2.3812    -2.3447    -6.1129 C.3     
  18 C18            0.5376    -4.4239    -7.4007 C.ar    
  19 C19            0.6380    -4.1076    -6.0615 C.ar    
  20 C20           -0.4787    -4.1896    -5.2512 C.ar    
  21 C21           -1.6857    -4.5900    -5.7866 C.ar    
  22 C22           -1.7886    -4.9103    -7.1339 C.ar    
  23 C23           -3.1343    -5.3479    -7.6502 C.3     
  24 C24           -3.1870    -5.2383    -9.1727 C.3     
  25 C25           -1.9638    -5.9583    -9.7524 C.3     
  26 C26           -0.7185    -5.1412    -9.4141 C.3     
  27 C27           -0.6770    -4.8240    -7.9422 C.ar    
  28 C28            0.5288    -5.9423    -9.7929 C.3     
  29 C29           -0.7399    -3.8355   -10.2113 C.3     
  30 C30           -3.3840    -6.8006    -7.2400 C.3     
  31 C31           -4.2212    -4.4590    -7.0425 C.3     
  32 H32            8.9467    -6.2497    -3.7219 H       
  33 H33            9.8564    -7.5378    -4.5776 H       
  34 H34            6.5001    -7.4205    -7.5203 H       
  35 H35            5.4797    -8.6557    -6.7449 H       
  36 H36            6.0373    -5.0566    -7.2160 H       
  37 H37            4.3320    -3.3465    -6.7360 H       
  38 H38            1.8861    -6.3064    -4.8797 H       
  39 H39            3.5877    -8.0182    -5.3672 H       
  40 H40            2.7815    -3.1892    -3.5522 H       
  41 H41            1.0700    -2.7452    -3.7569 H       
  42 H42            1.5252    -4.4498    -3.5219 H       
  43 H43            2.4784    -2.4675    -7.1916 H       
  44 H44            1.6266    -1.5876    -5.8999 H       
  45 H45            3.3381    -2.0316    -5.6952 H       
  46 H46            1.4098    -4.3558    -8.0340 H       
  47 H47           -0.4068    -3.9415    -4.2026 H       
  48 H48           -2.5576    -4.6552    -5.1526 H       
  49 H49           -4.0986    -5.7072    -9.5431 H       
  50 H50           -3.1682    -4.1887    -9.4660 H       
  51 H51           -1.8809    -6.9526    -9.3134 H       
  52 H52           -2.0655    -6.0416   -10.8344 H       
  53 H53            0.5120    -6.1571   -10.8614 H       
  54 H54            1.4199    -5.3622    -9.5529 H       
  55 H55            0.5431    -6.8781    -9.2343 H       
  56 H56           -1.6322    -3.2659    -9.9517 H       
  57 H57            0.1476    -3.2494    -9.9725 H       
  58 H58           -0.7503    -4.0610   -11.2777 H       
  59 H59           -3.3666    -6.8793    -6.1530 H       
  60 H60           -4.3572    -7.1210    -7.6120 H       
  61 H61           -2.6061    -7.4364    -7.6629 H       
  62 H62           -4.0416    -3.4215    -7.3241 H       
  63 H63           -5.1968    -4.7727    -7.4138 H       
  64 H64           -4.1995    -4.5496    -5.9565 H       
@<TRIPOS>BOND
   1    1    2 1
   2    1    5 1
   3    2    3 am
   4    2    6 2
   5    3    4 am
   6    3    8 1
   7    4    5 1
   8    4    7 2
   9    5   32 1
  10    5   33 1
  11    8    9 1
  12    8   34 1
  13    8   35 1
  14    9   10 ar
  15    9   14 ar
  16   10   11 ar
  17   10   36 1
  18   11   12 ar
  19   11   37 1
  20   12   13 ar
  21   12   16 1
  22   13   14 ar
  23   13   38 1
  24   14   39 1
  25   15   16 1
  26   15   40 1
  27   15   41 1
  28   15   42 1
  29   16   17 1
  30   16   19 1
  31   17   43 1
  32   17   44 1
  33   17   45 1
  34   18   19 ar
  35   18   27 ar
  36   18   46 1
  37   19   20 ar
  38   20   21 ar
  39   20   47 1
  40   21   22 ar
  41   21   48 1
  42   22   23 1
  43   22   27 ar
  44   23   24 1
  45   23   30 1
  46   23   31 1
  47   24   25 1
  48   24   49 1
  49   24   50 1
  50   25   26 1
  51   25   51 1
  52   25   52 1
  53   26   27 1
  54   26   28 1
  55   26   29 1
  56   28   53 1
  57   28   54 1
  58   28   55 1
  59   29   56 1
  60   29   57 1
  61   29   58 1
  62   30   59 1
  63   30   60 1
  64   30   61 1
  65   31   62 1
  66   31   63 1
  67   31   64 1

#	End of record

