#	Name: ASD01040019
#	Creating user name:	WinNT
#	Creation time:	15. 06. 2019 18:58

#	Modifying user name:	WinNT
#	Modification time:	15. 06. 2019 18:58

#	Program:	/corina/corina34_cracker 3.40 0067  02.08.2006

@<TRIPOS>MOLECULE
ASD01040019
  50   53    0    0    0
SMALL
NO_CHARGES


@<TRIPOS>ATOM
   1 O1            -0.4993     0.7645     1.5524 O.3     
   2 C2            -0.3465    -0.5693     1.3444 C.ar    
   3 C3            -0.6085    -1.1095     0.0920 C.ar    
   4 C4            -0.4551    -2.4623    -0.1228 C.ar    
   5 C5             0.0769    -1.3883     2.3830 C.ar    
   6 C6             0.2336    -2.7420     2.1757 C.ar    
   7 C7            -0.0352    -3.2896     0.9202 C.ar    
   8 C8             0.1308    -4.7422     0.6937 C.2     
   9 C9            -0.7394    -5.7056     1.4031 C.ar    
  10 C10           -0.1957    -6.5714     2.3536 C.ar    
  11 C11           -1.0097    -7.4673     3.0128 C.ar    
  12 C12           -2.3693    -7.5094     2.7324 C.ar    
  13 O13           -3.1685    -8.3938     3.3842 O.3     
  14 C14           -2.9141    -6.6493     1.7878 C.ar    
  15 C15           -2.1073    -5.7473     1.1279 C.ar    
  16 C16            1.0805    -5.1905    -0.1641 C.2     
  17 C17            1.1415    -6.6178    -0.5129 C.ar    
  18 C18           -0.0368    -7.3640    -0.6284 C.ar    
  19 C19            0.0244    -8.7022    -0.9561 C.ar    
  20 C20            1.2469    -9.3117    -1.1713 C.ar    
  21 C21            2.4245    -8.5804    -1.0594 C.ar    
  22 N22            3.6563    -9.2025    -1.2780 N.pl3   
  23 C23            4.7965    -8.7518    -0.6053 C.ar    
  24 C24            4.6803    -8.1840     0.6570 C.ar    
  25 C25            5.8077    -7.7400     1.3197 C.ar    
  26 C26            7.0532    -7.8605     0.7267 C.ar    
  27 F27            8.1548    -7.4258     1.3770 F       
  28 C28            7.1715    -8.4262    -0.5316 C.ar    
  29 C29            6.0474    -8.8764    -1.1959 C.ar    
  30 C30            2.3762    -7.2334    -0.7362 C.ar    
  31 H31            0.2969     1.2840     1.3753 H       
  32 H32           -0.9334    -0.4687    -0.7144 H       
  33 H33           -0.6598    -2.8817    -1.0968 H       
  34 H34            0.2840    -0.9639     3.3543 H       
  35 H35            0.5635    -3.3781     2.9837 H       
  36 H36            0.8616    -6.5395     2.5719 H       
  37 H37           -0.5897    -8.1377     3.7480 H       
  38 H38           -3.5486    -8.0501     4.2043 H       
  39 H39           -3.9718    -6.6850     1.5725 H       
  40 H40           -2.5324    -5.0760     0.3964 H       
  41 H41            1.7920    -4.4993    -0.5911 H       
  42 H42           -0.9937    -6.8921    -0.4605 H       
  43 H43           -0.8860    -9.2764    -1.0448 H       
  44 H44            1.2874   -10.3602    -1.4269 H       
  45 H45            3.7207    -9.9470    -1.8965 H       
  46 H46            3.7091    -8.0895     1.1198 H       
  47 H47            5.7178    -7.2981     2.3011 H       
  48 H48            8.1439    -8.5191    -0.9922 H       
  49 H49            6.1401    -9.3175    -2.1773 H       
  50 H50            3.2894    -6.6628    -0.6529 H       
@<TRIPOS>BOND
   1    1    2 1
   2    1   31 1
   3    2    5 ar
   4    2    3 ar
   5    3    4 ar
   6    3   32 1
   7    4    7 ar
   8    4   33 1
   9    5    6 ar
  10    5   34 1
  11    6    7 ar
  12    6   35 1
  13    7    8 1
  14    8    9 1
  15    8   16 2
  16    9   10 ar
  17    9   15 ar
  18   10   11 ar
  19   10   36 1
  20   11   12 ar
  21   11   37 1
  22   12   13 1
  23   12   14 ar
  24   13   38 1
  25   14   39 1
  26   14   15 ar
  27   15   40 1
  28   16   17 1
  29   16   41 1
  30   17   30 ar
  31   17   18 ar
  32   18   19 ar
  33   18   42 1
  34   19   20 ar
  35   19   43 1
  36   20   44 1
  37   20   21 ar
  38   21   22 1
  39   21   30 ar
  40   22   45 1
  41   22   23 1
  42   23   24 ar
  43   23   29 ar
  44   24   46 1
  45   24   25 ar
  46   25   47 1
  47   25   26 ar
  48   26   28 ar
  49   26   27 1
  50   28   29 ar
  51   28   48 1
  52   29   49 1
  53   30   50 1

#	End of record

