#	Name: ASD01810262
#	Creating user name:	WinNT
#	Creation time:	15. 06. 2019 19:24

#	Modifying user name:	WinNT
#	Modification time:	15. 06. 2019 19:24

#	Program:	/corina/corina34_cracker 3.40 0067  02.08.2006

@<TRIPOS>MOLECULE
ASD01810262
  65   70    0    0    0
SMALL
NO_CHARGES


@<TRIPOS>ATOM
   1 C1            -0.0356     1.3593     0.2310 C.ar    
   2 C2            -0.0057    -0.0336     0.2257 C.ar    
   3 C3             1.1734    -0.7095     0.1392 C.ar    
   4 C4             2.3800     0.0032     0.0533 C.ar    
   5 C5             2.3503     1.4222     0.0581 C.ar    
   6 C6             1.1133     2.0847     0.1494 C.ar    
   7 C7             3.6153    -0.6640    -0.0378 C.ar    
   8 C8             4.7694     0.0442    -0.1204 C.ar    
   9 C9             4.7565     1.4529    -0.1164 C.ar    
  10 C10            3.5523     2.1331    -0.0280 C.ar    
  11 C11            5.8456     2.4464    -0.1932 C.2     
  12 N12            5.3442     3.6928    -0.1541 N.am    
  13 C13            3.8833     3.6042    -0.0486 C.3     
  14 O14            7.0276     2.1759    -0.2792 O.2     
  15 C15            6.1247     4.9314    -0.2080 C.3     
  16 C16            3.6565    -2.1704    -0.0431 C.3     
  17 N17            3.4387    -2.6710     1.3207 N.3     
  18 C18            3.1075    -4.1016     1.3095 C.3     
  19 C19            2.7458    -4.5540     2.7261 C.3     
  20 C20            3.9321    -4.2929     3.6584 C.3     
  21 C21            4.2875    -2.8042     3.6147 C.3     
  22 C22            4.6045    -2.4026     2.1723 C.3     
  23 C23            3.5608    -4.6808     5.0665 C.ar    
  24 C24            4.5519    -4.8291     6.0179 C.ar    
  25 N25            2.2932    -4.8696     5.3778 N.ar    
  26 C26            1.9217    -5.2093     6.5965 C.ar    
  27 C27            2.8577    -5.3807     7.5991 C.ar    
  28 C28            4.1997    -5.1858     7.3108 C.ar    
  29 C29            5.0893    -5.0881     3.2167 C.1     
  30 N30            5.9824    -5.7019     2.8757 N.1     
  31 C31            7.0972     4.9761     0.9746 C.3     
  32 C32            6.9239     4.9770    -1.5140 C.3     
  33 C33            7.7958     6.2353    -1.5260 C.3     
  34 O34            8.6544     6.2292    -0.3838 O.3     
  35 C35            7.9624     6.2345     0.8665 C.3     
  36 H36           -0.9844     1.8710     0.2964 H       
  37 H37           -0.9316    -0.5856     0.2916 H       
  38 H38            1.1803    -1.7895     0.1370 H       
  39 H39            1.0749     3.1640     0.1539 H       
  40 H40            5.7115    -0.4794    -0.1898 H       
  41 H41            3.4156     4.0816    -0.9097 H       
  42 H42            3.5446     4.0775     0.8729 H       
  43 H43            5.4527     5.7883    -0.1602 H       
  44 H44            2.8751    -2.5530    -0.6997 H       
  45 H45            4.6294    -2.5060    -0.4022 H       
  46 H46            2.2598    -4.2730     0.6461 H       
  47 H47            3.9669    -4.6706     0.9549 H       
  48 H48            1.8780    -3.9951     3.0761 H       
  49 H49            2.5152    -5.6193     2.7202 H       
  50 H50            3.4439    -2.2177     3.9787 H       
  51 H51            5.1584    -2.6193     4.2436 H       
  52 H52            5.4568    -2.9795     1.8137 H       
  53 H53            4.8441    -1.3399     2.1356 H       
  54 H54            5.5879    -4.6694     5.7577 H       
  55 H55            0.8739    -5.3549     6.8140 H       
  56 H56            2.5472    -5.6590     8.5953 H       
  57 H57            4.9532    -5.3129     8.0740 H       
  58 H58            6.5347     4.9999     1.9080 H       
  59 H59            7.7353     4.0926     0.9551 H       
  60 H60            7.5585     4.0935    -1.5838 H       
  61 H61            6.2375     5.0013    -2.3604 H       
  62 H62            8.3987     6.2512    -2.4339 H       
  63 H63            7.1587     7.1193    -1.4971 H       
  64 H64            7.3274     7.1185     0.9267 H       
  65 H65            8.6853     6.2498     1.6821 H       
@<TRIPOS>BOND
   1    1    2 ar
   2    1    6 ar
   3    1   36 1
   4    2    3 ar
   5    2   37 1
   6    3    4 ar
   7    3   38 1
   8    4    5 ar
   9    4    7 ar
  10    5    6 ar
  11    5   10 ar
  12    6   39 1
  13    7    8 ar
  14    7   16 1
  15    8    9 ar
  16    8   40 1
  17    9   10 ar
  18    9   11 1
  19   10   13 1
  20   11   12 am
  21   11   14 2
  22   12   13 1
  23   12   15 1
  24   13   41 1
  25   13   42 1
  26   15   31 1
  27   15   32 1
  28   15   43 1
  29   16   17 1
  30   16   44 1
  31   16   45 1
  32   17   18 1
  33   17   22 1
  34   18   19 1
  35   18   46 1
  36   18   47 1
  37   19   20 1
  38   19   48 1
  39   19   49 1
  40   20   21 1
  41   20   23 1
  42   20   29 1
  43   21   22 1
  44   21   50 1
  45   21   51 1
  46   22   52 1
  47   22   53 1
  48   23   24 ar
  49   23   25 ar
  50   24   28 ar
  51   24   54 1
  52   25   26 ar
  53   26   27 ar
  54   26   55 1
  55   27   28 ar
  56   27   56 1
  57   28   57 1
  58   29   30 3
  59   31   35 1
  60   31   58 1
  61   31   59 1
  62   32   33 1
  63   32   60 1
  64   32   61 1
  65   33   34 1
  66   33   62 1
  67   33   63 1
  68   34   35 1
  69   35   64 1
  70   35   65 1

#	End of record

