#	Name: ASD01813543
#	Creating user name:	WinNT
#	Creation time:	15. 06. 2019 19:30

#	Modifying user name:	WinNT
#	Modification time:	15. 06. 2019 19:30

#	Program:	/corina/corina34_cracker 3.40 0067  02.08.2006

@<TRIPOS>MOLECULE
ASD01813543
  59   63    0    0    0
SMALL
NO_CHARGES


@<TRIPOS>ATOM
   1 C1            -2.2027    -4.8400     5.3088 C.3     
   2 C2            -1.6002    -4.6554     3.9399 C.ar    
   3 C3            -0.9744    -3.4646     3.6241 C.ar    
   4 C4            -0.4228    -3.3050     2.3619 C.ar    
   5 C5            -0.5221    -4.3540     1.4610 C.ar    
   6 C6             0.0618    -4.2294     0.0774 C.3     
   7 N7             1.4537    -4.6990     0.0891 N.3     
   8 C8             2.2035    -4.0924     1.1934 C.3     
   9 C9             3.6554    -4.5777     1.1413 C.3     
  10 N10            4.2319    -4.1527    -0.1329 N.am    
  11 C11            5.4730    -3.6703    -0.2368 C.2     
  12 O12            5.9333    -3.5156    -1.3483 O.2     
  13 C13            6.3285    -3.3091     0.9347 C.3     
  14 N14            5.6315    -3.4870     2.1981 N.am    
  15 C15            6.2867    -3.0171     3.4213 C.3     
  16 H16            5.6444    -3.2196     4.2783 H       
  17 C17            7.6194    -3.7473     3.5988 C.3     
  18 C18            8.3037    -3.2565     4.8762 C.3     
  19 C19            8.5568    -1.7511     4.7731 C.3     
  20 C20            7.2240    -1.0208     4.5955 C.3     
  21 C21            6.5398    -1.5117     3.3181 C.3     
  22 H22            7.1821    -1.3091     2.4611 H       
  23 O23            5.2951    -0.8296     3.1523 O.3     
  24 C24            4.4293    -4.0540     2.3062 C.2     
  25 O25            3.9378    -4.1497     3.4108 O.2     
  26 C26            3.4193    -4.2411    -1.2798 C.ar    
  27 C27            3.9849    -4.0621    -2.5320 C.ar    
  28 C28            3.1946    -4.1394    -3.6644 C.ar    
  29 C29            1.8412    -4.3947    -3.5454 C.ar    
  30 C30            1.2722    -4.5764    -2.3001 C.ar    
  31 C31            2.0579    -4.5041    -1.1542 C.ar    
  32 C32           -1.1631    -5.5159     1.8482 C.ar    
  33 N33           -1.6716    -5.6343     3.0589 N.ar    
  34 H34           -1.4543    -5.2584     5.9818 H       
  35 H35           -2.5372    -3.8758     5.6916 H       
  36 H36           -3.0526    -5.5194     5.2431 H       
  37 H37           -0.9158    -2.6681     4.3511 H       
  38 H38            0.0721    -2.3853     2.0871 H       
  39 H39           -0.5199    -4.8343    -0.6183 H       
  40 H40            0.0329    -3.1860    -0.2365 H       
  41 H41            2.1786    -3.0069     1.0977 H       
  42 H42            1.7552    -4.3858     2.1426 H       
  43 H43            3.6638    -5.6672     1.1733 H       
  44 H44            7.2188    -3.9380     0.9300 H       
  45 H45            6.6332    -2.2666     0.8424 H       
  46 H46            7.4391    -4.8198     3.6723 H       
  47 H47            8.2617    -3.5447     2.7418 H       
  48 H48            7.6614    -3.4590     5.7333 H       
  49 H49            9.2531    -3.7767     5.0027 H       
  50 H50            9.0442    -1.4014     5.6831 H       
  51 H51            9.1990    -1.5485     3.9160 H       
  52 H52            6.5818    -1.2234     5.4526 H       
  53 H53            7.4043     0.0516     4.5221 H       
  54 H54            5.3795     0.1309     3.0797 H       
  55 H55            5.0422    -3.8619    -2.6237 H       
  56 H56            3.6344    -4.0001    -4.6409 H       
  57 H57            1.2255    -4.4521    -4.4308 H       
  58 H58            0.2141    -4.7756    -2.2156 H       
  59 H59           -1.2450    -6.3376     1.1521 H       
@<TRIPOS>BOND
   1    1    2 1
   2    1   34 1
   3    1   35 1
   4    1   36 1
   5    2   33 ar
   6    2    3 ar
   7    3    4 ar
   8    3   37 1
   9    4    5 ar
  10    4   38 1
  11    5    6 1
  12    5   32 ar
  13    6    7 1
  14    6   39 1
  15    6   40 1
  16    7   31 1
  17    7    8 1
  18    8    9 1
  19    8   41 1
  20    8   42 1
  21    9   24 1
  22    9   10 1
  23    9   43 1
  24   10   11 am
  25   10   26 1
  26   11   12 2
  27   11   13 1
  28   13   14 1
  29   13   44 1
  30   13   45 1
  31   14   15 1
  32   14   24 am
  33   15   16 1
  34   15   21 1
  35   15   17 1
  36   17   18 1
  37   17   46 1
  38   17   47 1
  39   18   19 1
  40   18   48 1
  41   18   49 1
  42   19   20 1
  43   19   50 1
  44   19   51 1
  45   20   21 1
  46   20   52 1
  47   20   53 1
  48   21   22 1
  49   21   23 1
  50   23   54 1
  51   24   25 2
  52   26   31 ar
  53   26   27 ar
  54   27   28 ar
  55   27   55 1
  56   28   29 ar
  57   28   56 1
  58   29   30 ar
  59   29   57 1
  60   30   31 ar
  61   30   58 1
  62   32   33 ar
  63   32   59 1

#	End of record

