#	Name: ASD00071024
#	Creating user name:	WinNT
#	Creation time:	15. 06. 2019 18:30

#	Modifying user name:	WinNT
#	Modification time:	15. 06. 2019 18:30

#	Program:	/corina/corina34_cracker 3.40 0067  02.08.2006

@<TRIPOS>MOLECULE
ASD00071024
  44   46    0    0    0
SMALL
NO_CHARGES


@<TRIPOS>ATOM
   1 N1            -0.1097     1.1204     0.4099 N.ar    
   2 C2             0.0185    -0.1613     0.1344 C.ar    
   3 C3             1.2532    -0.7117    -0.2355 C.ar    
   4 C4             2.3554     0.0859    -0.3167 C.ar    
   5 C5             2.2121     1.4563    -0.0212 C.ar    
   6 C6             3.3079     2.3318    -0.0864 C.ar    
   7 C7             3.1349     3.6537     0.2055 C.ar    
   8 C8             1.8739     4.1468     0.5699 C.ar    
   9 C9             0.7914     3.3178     0.6412 C.ar    
  10 C10            0.9372     1.9524     0.3472 C.ar    
  11 N11           -1.0949    -0.9860     0.2127 N.pl3   
  12 C12            1.3620    -2.1831    -0.5426 C.3     
  13 C13            0.9977    -2.4235    -1.9850 C.ar    
  14 C14            1.9387    -2.2142    -2.9830 C.ar    
  15 C15            1.6002    -2.4363    -4.3097 C.ar    
  16 C16            0.3276    -2.8653    -4.6343 C.ar    
  17 C17           -0.6083    -3.0726    -3.6382 C.ar    
  18 C18           -0.2715    -2.8578    -2.3142 C.ar    
  19 O19            3.1896    -1.7918    -2.6613 O.3     
  20 C20            4.1062    -1.5972    -3.7402 C.3     
  21 O21            1.7274     5.4671     0.8562 O.3     
  22 C22            0.4188     5.9105     1.2212 C.3     
  23 O23            4.1964     4.5012     0.1427 O.3     
  24 C24            5.4547     3.9382    -0.2341 C.3     
  25 H25            3.3144    -0.3221    -0.5999 H       
  26 H26            4.2829     1.9609    -0.3657 H       
  27 H27           -0.1741     3.7109     0.9236 H       
  28 H28           -1.9725    -0.6027     0.3672 H       
  29 H29           -0.9956    -1.9457     0.1129 H       
  30 H30            2.3846    -2.5165    -0.3657 H       
  31 H31            0.6817    -2.7400     0.1016 H       
  32 H32            2.3308    -2.2737    -5.0884 H       
  33 H33            0.0636    -3.0383    -5.6672 H       
  34 H34           -1.6027    -3.4073    -3.8940 H       
  35 H35           -1.0029    -3.0251    -1.5374 H       
  36 H36            5.0651    -1.2606    -3.3460 H       
  37 H37            4.2430    -2.5372    -4.2748 H       
  38 H38            3.7098    -0.8454    -4.4226 H       
  39 H39           -0.2739     5.7094     0.4040 H       
  40 H40            0.0911     5.3789     2.1145 H       
  41 H41            0.4413     6.9813     1.4233 H       
  42 H42            5.7372     3.1675     0.4831 H       
  43 H43            5.3726     3.4975    -1.2276 H       
  44 H44            6.2139     4.7202    -0.2450 H       
@<TRIPOS>BOND
   1    1    2 ar
   2    1   10 ar
   3    2    3 ar
   4    2   11 1
   5    3    4 ar
   6    3   12 1
   7    4    5 ar
   8    4   25 1
   9    5    6 ar
  10    5   10 ar
  11    6    7 ar
  12    6   26 1
  13    7    8 ar
  14    7   23 1
  15    8    9 ar
  16    8   21 1
  17    9   10 ar
  18    9   27 1
  19   11   28 1
  20   11   29 1
  21   12   13 1
  22   12   30 1
  23   12   31 1
  24   13   14 ar
  25   13   18 ar
  26   14   15 ar
  27   14   19 1
  28   15   16 ar
  29   15   32 1
  30   16   17 ar
  31   16   33 1
  32   17   18 ar
  33   17   34 1
  34   18   35 1
  35   19   20 1
  36   20   36 1
  37   20   37 1
  38   20   38 1
  39   21   22 1
  40   22   39 1
  41   22   40 1
  42   22   41 1
  43   23   24 1
  44   24   42 1
  45   24   43 1
  46   24   44 1

#	End of record

