#	Name: ASD01815668
#	Creating user name:	WinNT
#	Creation time:	15. 06. 2019 19:33

#	Modifying user name:	WinNT
#	Modification time:	15. 06. 2019 19:33

#	Program:	/corina/corina34_cracker 3.40 0067  02.08.2006

@<TRIPOS>MOLECULE
ASD01815668
  59   61    0    0    0
SMALL
NO_CHARGES


@<TRIPOS>ATOM
   1 C1            -0.0169     1.3931     0.0097 C.ar    
   2 C2             0.0021    -0.0041     0.0020 C.ar    
   3 C3             1.2500     2.1504     0.0017 C.2     
   4 O4             2.3120     1.5585    -0.0116 O.2     
   5 N5             1.2297     3.4980     0.0091 N.am    
   6 C6             2.4872     4.2496     0.0011 C.3     
   7 C7             2.2609     5.6307     0.6204 C.3     
   8 N8             3.5161     6.3922     0.5935 N.3     
   9 C9             3.9785     6.6053    -0.7839 C.3     
  10 C10            4.2561     5.2533    -1.4451 C.3     
  11 C11            2.9742     4.4159    -1.4410 C.3     
  12 C12            3.3721     7.6699     1.3040 C.3     
  13 C13            4.7283     8.3765     1.3625 C.3     
  14 C14            4.5815     9.6918     2.1340 C.3     
  15 N15            3.5130    10.4870     1.5138 N.am    
  16 C16            2.1922     9.8714     1.3265 C.3     
  17 C17            2.3658     8.5541     0.5640 C.3     
  18 C18            3.7401    11.7572     1.1246 C.2     
  19 O19            4.8368    12.2551     1.2854 O.2     
  20 O20            2.7517    12.4745     0.5576 O.3     
  21 C21            3.0678    13.8356     0.1632 C.3     
  22 C22            1.8304    14.4871    -0.4575 C.3     
  23 C23           -1.1820    -0.7069     0.0096 C.ar    
  24 C24           -2.3950    -0.0283     0.0249 C.ar    
  25 C25           -2.4182     1.3614     0.0326 C.ar    
  26 C26           -1.2384     2.0716     0.0192 C.ar    
  27 O27           -3.5599    -0.7246     0.0318 O.3     
  28 C28           -4.7699     0.0354     0.0476 C.3     
  29 H29            0.9442    -0.5320    -0.0102 H       
  30 H30            0.3825     3.9702     0.0197 H       
  31 H31            3.2373     3.7100     0.5793 H       
  32 H32            1.5002     6.1641     0.0504 H       
  33 H33            1.9277     5.5160     1.6519 H       
  34 H34            3.2098     7.1341    -1.3474 H       
  35 H35            4.8929     7.1985    -0.7724 H       
  36 H36            4.5843     5.4112    -2.4724 H       
  37 H37            5.0346     4.7298    -0.8901 H       
  38 H38            3.1781     3.4356    -1.8719 H       
  39 H39            2.2074     4.9207    -2.0285 H       
  40 H40            3.0156     7.4838     2.3171 H       
  41 H41            5.4506     7.7362     1.8691 H       
  42 H42            5.0738     8.5852     0.3500 H       
  43 H43            4.3240     9.4799     3.1717 H       
  44 H44            5.5195    10.2456     2.0939 H       
  45 H45            1.7398     9.6742     2.2984 H       
  46 H46            1.5536    10.5438     0.7536 H       
  47 H47            2.7335     8.7612    -0.4410 H       
  48 H48            1.4064     8.0404     0.5023 H       
  49 H49            3.3775    14.4052     1.0394 H       
  50 H50            3.8770    13.8237    -0.5670 H       
  51 H51            1.5208    13.9175    -1.3337 H       
  52 H52            1.0212    14.4991     0.2727 H       
  53 H53            2.0677    15.5090    -0.7536 H       
  54 H54           -1.1682    -1.7868     0.0033 H       
  55 H55           -3.3627     1.8850     0.0441 H       
  56 H56           -1.2572     3.1514     0.0256 H       
  57 H57           -4.7959     0.6587     0.9414 H       
  58 H58           -4.8126     0.6689    -0.8385 H       
  59 H59           -5.6242    -0.6415     0.0517 H       
@<TRIPOS>BOND
   1    1    2 ar
   2    1    3 1
   3    1   26 ar
   4    2   23 ar
   5    2   29 1
   6    3    4 2
   7    3    5 am
   8    5    6 1
   9    5   30 1
  10    6    7 1
  11    6   11 1
  12    6   31 1
  13    7    8 1
  14    7   32 1
  15    7   33 1
  16    8    9 1
  17    8   12 1
  18    9   10 1
  19    9   34 1
  20    9   35 1
  21   10   11 1
  22   10   36 1
  23   10   37 1
  24   11   38 1
  25   11   39 1
  26   12   13 1
  27   12   17 1
  28   12   40 1
  29   13   14 1
  30   13   41 1
  31   13   42 1
  32   14   15 1
  33   14   43 1
  34   14   44 1
  35   15   16 1
  36   15   18 am
  37   16   17 1
  38   16   45 1
  39   16   46 1
  40   17   47 1
  41   17   48 1
  42   18   19 2
  43   18   20 1
  44   20   21 1
  45   21   22 1
  46   21   49 1
  47   21   50 1
  48   22   51 1
  49   22   52 1
  50   22   53 1
  51   23   24 ar
  52   23   54 1
  53   24   25 ar
  54   24   27 1
  55   25   26 ar
  56   25   55 1
  57   26   56 1
  58   27   28 1
  59   28   57 1
  60   28   58 1
  61   28   59 1

#	End of record

