#	Name: ASD00310226
#	Creating user name:	WinNT
#	Creation time:	15. 06. 2019 18:34

#	Modifying user name:	WinNT
#	Modification time:	15. 06. 2019 18:34

#	Program:	/corina/corina34_cracker 3.40 0067  02.08.2006

@<TRIPOS>MOLECULE
ASD00310226
  43   46    0    0    0
SMALL
NO_CHARGES


@<TRIPOS>ATOM
   1 N1             1.2931    -1.2317     2.6962 N.pl3   
   2 C2             1.6424    -2.5282     2.5217 C.2     
   3 C3             2.9274    -2.6033     2.0685 C.2     
   4 C4             3.4113    -1.2146     1.9548 C.ar    
   5 C5             4.6138    -0.6405     1.5562 C.ar    
   6 C6             4.7461     0.7425     1.5650 C.ar    
   7 C7             3.6764     1.5450     1.9725 C.ar    
   8 C8             2.4952     0.9839     2.3646 C.ar    
   9 C9             2.3419    -0.4000     2.3622 C.ar    
  10 C10            3.6790    -3.8241     1.7561 C.2     
  11 O11            4.8254    -3.7472     1.3581 O.2     
  12 O12            3.0985    -5.0314     1.9104 O.3     
  13 C13            3.8288     3.0442     1.9794 C.3     
  14 C14            6.0235     1.3680     1.1422 C.ar    
  15 C15            7.2304     0.9261     1.6806 C.ar    
  16 C16            8.4156     1.5115     1.2837 C.ar    
  17 C17            8.4068     2.5351     0.3534 C.ar    
  18 C18            7.2117     2.9777    -0.1843 C.ar    
  19 C19            6.0211     2.3956     0.2010 C.ar    
  20 C20            9.7041     3.1707    -0.0756 C.3     
  21 C21           10.7622     2.2618    -0.7042 C.3     
  22 C22            9.9884     3.2521    -1.5768 C.3     
  23 C23           10.1947     4.3252     0.8004 C.3     
  24 O24            9.2757     5.4157     0.7099 O.3     
  25 H25            0.4257    -0.9298     3.0082 H       
  26 H26            1.0006    -3.3755     2.7128 H       
  27 H27            5.4378    -1.2644     1.2428 H       
  28 H28            1.6769     1.6155     2.6774 H       
  29 H29            3.6333    -5.8068     1.6920 H       
  30 H30            3.5257     3.4447     1.0120 H       
  31 H31            3.2004     3.4697     2.7618 H       
  32 H32            4.8706     3.3027     2.1694 H       
  33 H33            7.2383     0.1272     2.4073 H       
  34 H34            9.3515     1.1700     1.7006 H       
  35 H35            7.2106     3.7775    -0.9101 H       
  36 H36            5.0889     2.7386    -0.2230 H       
  37 H37           11.8079     2.4865    -0.4940 H       
  38 H38           10.5200     1.2041    -0.8074 H       
  39 H39            9.2372     2.8460    -2.2540 H       
  40 H40           10.5250     4.1284    -1.9405 H       
  41 H41           10.2623     3.9921     1.8361 H       
  42 H42           11.1776     4.6489     0.4580 H       
  43 H43            9.5241     6.1845     1.2412 H       
@<TRIPOS>BOND
   1    1    2 1
   2    1    9 1
   3    1   25 1
   4    2    3 2
   5    2   26 1
   6    3    4 1
   7    3   10 1
   8    4    5 ar
   9    4    9 ar
  10    5    6 ar
  11    5   27 1
  12    6    7 ar
  13    6   14 1
  14    7    8 ar
  15    7   13 1
  16    8    9 ar
  17    8   28 1
  18   10   11 2
  19   10   12 1
  20   12   29 1
  21   13   30 1
  22   13   31 1
  23   13   32 1
  24   14   15 ar
  25   14   19 ar
  26   15   16 ar
  27   15   33 1
  28   16   17 ar
  29   16   34 1
  30   17   18 ar
  31   17   20 1
  32   18   19 ar
  33   18   35 1
  34   19   36 1
  35   20   21 1
  36   20   22 1
  37   20   23 1
  38   21   22 1
  39   21   37 1
  40   21   38 1
  41   22   39 1
  42   22   40 1
  43   23   24 1
  44   23   41 1
  45   23   42 1
  46   24   43 1

#	End of record

