#	Name: ASD01190005
#	Creating user name:	WinNT
#	Creation time:	15. 06. 2019 19:07

#	Modifying user name:	WinNT
#	Modification time:	15. 06. 2019 19:07

#	Program:	/corina/corina34_cracker 3.40 0067  02.08.2006

@<TRIPOS>MOLECULE
ASD01190005
  45   49    0    0    0
SMALL
NO_CHARGES


@<TRIPOS>ATOM
   1 C1            -0.0187     1.5258     0.0104 C.3     
   2 C2             0.5311     0.1142    -0.2045 C.3     
   3 C3             2.4739     5.6219     1.4444 C.ar    
   4 C4             2.2842     4.2884     1.1065 C.ar    
   5 C5             0.9891     3.8641     0.7433 C.ar    
   6 C6            -0.0471     4.8030     0.7383 C.ar    
   7 C7             0.2355     6.0940     1.0854 C.ar    
   8 N8             1.4603     6.4631     1.4230 N.ar    
   9 N9             3.1055     3.1877     1.0300 N.pl3   
  10 C10            1.0981     2.4388     0.4466 C.2     
  11 C11            2.3843     2.0957     0.6361 C.2     
  12 N12           -2.4670     3.4122    -4.6860 N.pl3   
  13 N13           -3.7992     3.3855    -4.2605 N.2     
  14 C14           -3.8682     2.9580    -3.0316 C.2     
  15 C15           -2.5096     2.6729    -2.5808 C.ar    
  16 C16           -1.9613     2.1995    -1.3836 C.ar    
  17 C17           -0.6104     2.0360    -1.2782 C.ar    
  18 C18            0.2246     2.3361    -2.3476 C.ar    
  19 C19           -0.2873     2.8001    -3.5263 C.ar    
  20 C20           -1.6614     2.9764    -3.6634 C.ar    
  21 C21           -2.0263     3.8133    -5.9539 C.ar    
  22 C22           -2.7977     3.5419    -7.0762 C.ar    
  23 C23           -2.3614     3.9382    -8.3251 C.ar    
  24 C24           -1.1555     4.6057    -8.4587 C.ar    
  25 C25           -0.3846     4.8773    -7.3407 C.ar    
  26 C26           -0.8200     4.4878    -6.0894 C.ar    
  27 F27           -0.7302     4.9921    -9.6814 F       
  28 F28            1.0804    -0.3595     0.9917 F       
  29 F29           -0.5056    -0.7334    -0.6095 F       
  30 F30            1.5212     0.1449    -1.1924 F       
  31 O31           -1.0300     1.4945     1.0195 O.3     
  32 H32            3.4555     5.9698     1.7303 H       
  33 H33           -1.0511     4.5135     0.4652 H       
  34 H34           -0.5571     6.8277     1.0850 H       
  35 H35            4.0554     3.1867     1.2262 H       
  36 H36            2.7879     1.1036     0.4975 H       
  37 H37           -4.7700     2.8366    -2.4499 H       
  38 H38           -2.6035     1.9648    -0.5476 H       
  39 H39            1.2913     2.2013    -2.2456 H       
  40 H40            0.3727     3.0300    -4.3497 H       
  41 H41           -3.7381     3.0211    -6.9724 H       
  42 H42           -2.9610     3.7270    -9.1982 H       
  43 H43            0.5558     5.3976    -7.4471 H       
  44 H44           -0.2208     4.7041    -5.2172 H       
  45 H45           -1.4240     2.3571     1.2083 H       
@<TRIPOS>BOND
   1    1    2 1
   2    1   10 1
   3    1   17 1
   4    1   31 1
   5    2   28 1
   6    2   29 1
   7    2   30 1
   8    3    4 ar
   9    3    8 ar
  10    3   32 1
  11    4    5 ar
  12    4    9 1
  13    5    6 ar
  14    5   10 1
  15    6    7 ar
  16    6   33 1
  17    7    8 ar
  18    7   34 1
  19    9   11 1
  20    9   35 1
  21   10   11 2
  22   11   36 1
  23   12   13 1
  24   12   20 1
  25   12   21 1
  26   13   14 2
  27   14   15 1
  28   14   37 1
  29   15   16 ar
  30   15   20 ar
  31   16   17 ar
  32   16   38 1
  33   17   18 ar
  34   18   19 ar
  35   18   39 1
  36   19   20 ar
  37   19   40 1
  38   21   22 ar
  39   21   26 ar
  40   22   23 ar
  41   22   41 1
  42   23   24 ar
  43   23   42 1
  44   24   25 ar
  45   24   27 1
  46   25   26 ar
  47   25   43 1
  48   26   44 1
  49   31   45 1

#	End of record

