#	Name: ASD01811091
#	Creating user name:	WinNT
#	Creation time:	15. 06. 2019 19:26

#	Modifying user name:	WinNT
#	Modification time:	15. 06. 2019 19:26

#	Program:	/corina/corina34_cracker 3.40 0067  02.08.2006

@<TRIPOS>MOLECULE
ASD01811091
  19   19    0    0    0
SMALL
NO_CHARGES


@<TRIPOS>ATOM
   1 N1            -0.0178     1.4675     0.0078 N.am    
   2 C2             0.0024    -0.0039     0.0049 C.3     
   3 C3             0.9182    -0.4726    -1.1315 C.3     
   4 O4             2.1851     0.1795    -1.0146 O.3     
   5 C5             2.1253     1.6020    -1.1443 C.3     
   6 C6             1.2713     2.1769    -0.0085 C.3     
   7 C7            -1.1826     2.1453     0.0194 C.2     
   8 S8            -2.6662     1.2999    -0.1045 S.2     
   9 N9            -1.1796     3.4886     0.1284 N.am    
  10 H10            0.3851    -0.3676     0.9585 H       
  11 H11           -1.0062    -0.3846    -0.1557 H       
  12 H12            1.0568    -1.5518    -1.0659 H       
  13 H13            0.4662    -0.2206    -2.0908 H       
  14 H14            3.1323     2.0153    -1.0878 H       
  15 H15            1.6777     1.8615    -2.1037 H       
  16 H16            1.1029     3.2404    -0.1780 H       
  17 H17            1.7818     2.0328     0.9437 H       
  18 H18           -0.3451     3.9616     0.2730 H       
  19 H19           -2.0118     3.9825     0.0622 H       
@<TRIPOS>BOND
   1    1    2 1
   2    1    6 1
   3    1    7 am
   4    2    3 1
   5    2   10 1
   6    2   11 1
   7    3    4 1
   8    3   12 1
   9    3   13 1
  10    4    5 1
  11    5    6 1
  12    5   14 1
  13    5   15 1
  14    6   16 1
  15    6   17 1
  16    7    8 2
  17    7    9 am
  18    9   18 1
  19    9   19 1

#	End of record

