#	Name: ASD01812735
#	Creating user name:	WinNT
#	Creation time:	15. 06. 2019 19:29

#	Modifying user name:	WinNT
#	Modification time:	15. 06. 2019 19:29

#	Program:	/corina/corina34_cracker 3.40 0067  02.08.2006

@<TRIPOS>MOLECULE
ASD01812735
  58   61    0    0    0
SMALL
NO_CHARGES


@<TRIPOS>ATOM
   1 N1            -0.0158     1.3147     0.0093 N.ar    
   2 C2             0.0021    -0.0041     0.0020 C.ar    
   3 C3             1.1989    -0.7033    -0.0127 C.ar    
   4 C4             2.3829    -0.0013    -0.0202 C.ar    
   5 C5             2.3448     1.3978    -0.0128 C.ar    
   6 C6             1.0955     2.0332     0.0025 C.ar    
   7 C7             3.8373    -0.3889    -0.0363 C.3     
   8 N8             4.5955     0.8684    -0.0373 N.am    
   9 C9             3.7280     1.8961    -0.0237 C.2     
  10 C10            6.0558     0.9844    -0.0504 C.3     
  11 C11            6.5432     1.0311    -1.4757 C.ar    
  12 C12            6.6712     2.2480    -2.1206 C.ar    
  13 C13            7.1175     2.2967    -3.4257 C.ar    
  14 C14            7.4395     1.1169    -4.0936 C.ar    
  15 C15            7.3087    -0.1063    -3.4390 C.ar    
  16 C16            6.8664    -0.1428    -2.1321 C.ar    
  17 O17            1.0255     3.3856     0.0100 O.3     
  18 O18            4.0429     3.0706    -0.0212 O.2     
  19 C19           -0.2795     3.9677     0.0251 C.3     
  20 C20            7.9194     1.1628    -5.4968 C.ar    
  21 C21            8.0562     2.3803    -6.1691 C.ar    
  22 C22            8.5064     2.3778    -7.4736 C.ar    
  23 N23            8.8049     1.2475    -8.0846 N.ar    
  24 C24            8.6898     0.0774    -7.4860 C.ar    
  25 C25            8.2525    -0.0101    -6.1804 C.ar    
  26 C26            9.0458    -1.1800    -8.2366 C.3     
  27 C27           -0.2695     5.3342    -0.6907 C.3     
  28 C28           -1.2157     6.2527     0.1023 C.3     
  29 C29           -1.7677     5.4123     1.2723 C.3     
  30 C30           -0.7072     4.3019     1.4758 C.3     
  31 O31           -0.7398     5.1876    -2.0320 O.3     
  32 H32           -0.9309    -0.5480     0.0080 H       
  33 H33            1.2023    -1.7833    -0.0178 H       
  34 H34            4.0797    -0.9721     0.8522 H       
  35 H35            4.0624    -0.9631    -0.9351 H       
  36 H36            6.3524     1.8979     0.4651 H       
  37 H37            6.4932     0.1235     0.4552 H       
  38 H38            6.4210     3.1618    -1.6021 H       
  39 H39            7.2167     3.2474    -3.9285 H       
  40 H40            7.5569    -1.0237    -3.9519 H       
  41 H41            6.7686    -1.0899    -1.6224 H       
  42 H42           -1.0006     3.2973    -0.4425 H       
  43 H43            7.8129     3.3094    -5.6752 H       
  44 H44            8.6154     3.3137    -8.0014 H       
  45 H45            8.1647    -0.9709    -5.6952 H       
  46 H46           10.1007    -1.4078    -8.0840 H       
  47 H47            8.4385    -2.0070    -7.8687 H       
  48 H48            8.8556    -1.0345    -9.2999 H       
  49 H49            0.7389     5.7480    -0.6912 H       
  50 H50           -0.6665     7.1123     0.4865 H       
  51 H51           -2.0337     6.5866    -0.5361 H       
  52 H52           -1.8584     6.0225     2.1708 H       
  53 H53           -2.7308     4.9760     1.0075 H       
  54 H54           -1.1485     3.4301     1.9589 H       
  55 H55            0.1391     4.6768     2.0514 H       
  56 H56           -0.7572     6.0132    -2.5352 H       
  57 Cl57          15.1007    12.1123     7.1708 Cl      
  58 H58           15.1007    13.4823     7.1708 H       
@<TRIPOS>BOND
   1    1    2 ar
   2    1    6 ar
   3    2    3 ar
   4    2   32 1
   5    3    4 ar
   6    3   33 1
   7    4    7 1
   8    4    5 ar
   9    5    6 ar
  10    5    9 1
  11    6   17 1
  12    7    8 1
  13    7   34 1
  14    7   35 1
  15    8    9 am
  16    8   10 1
  17    9   18 2
  18   10   11 1
  19   10   36 1
  20   10   37 1
  21   11   12 ar
  22   11   16 ar
  23   12   13 ar
  24   12   38 1
  25   13   14 ar
  26   13   39 1
  27   14   15 ar
  28   14   20 1
  29   15   16 ar
  30   15   40 1
  31   16   41 1
  32   17   19 1
  33   19   27 1
  34   19   30 1
  35   19   42 1
  36   20   21 ar
  37   20   25 ar
  38   21   22 ar
  39   21   43 1
  40   22   23 ar
  41   22   44 1
  42   23   24 ar
  43   24   25 ar
  44   24   26 1
  45   25   45 1
  46   26   46 1
  47   26   47 1
  48   26   48 1
  49   27   28 1
  50   27   31 1
  51   27   49 1
  52   28   29 1
  53   28   50 1
  54   28   51 1
  55   29   30 1
  56   29   52 1
  57   29   53 1
  58   30   54 1
  59   30   55 1
  60   31   56 1
  61   57   58 1

#	End of record

