#	Name: ASD02560068
#	Creating user name:	WinNT
#	Creation time:	15. 06. 2019 20:24

#	Modifying user name:	WinNT
#	Modification time:	15. 06. 2019 20:24

#	Program:	/corina/corina34_cracker 3.40 0067  02.08.2006

@<TRIPOS>MOLECULE
ASD02560068
  44   47    0    0    0
SMALL
NO_CHARGES


@<TRIPOS>ATOM
   1 C1            -0.0217     2.6587     0.0773 C.ar    
   2 C2            -0.3431     1.3327    -0.1463 C.ar    
   3 C3             0.6556     0.3951    -0.3144 C.ar    
   4 C4             1.9928     0.7718    -0.2616 C.ar    
   5 C5             2.3133     2.1121    -0.0201 C.ar    
   6 C6             1.3033     3.0460     0.1403 C.ar    
   7 N7             2.9738    -0.2079    -0.4755 N.pl3   
   8 C8             4.2413    -0.3031     0.0409 C.2     
   9 C9             4.9658     0.6310     0.8191 C.2     
  10 C10            4.4156     1.9795     1.1098 C.3     
  11 O11            3.6028     2.4711     0.0737 O.3     
  12 C12            2.7530    -1.3009    -1.2652 C.2     
  13 C13            3.8282    -2.1202    -1.2015 C.2     
  14 C14            4.7766    -1.5174    -0.3782 C.2     
  15 O15            6.0562     0.3244     1.2571 O.2     
  16 C16            3.6005     1.9094     2.3754 C.ar    
  17 C17            5.5779     2.9502     1.3281 C.3     
  18 C18            6.4414     3.0039     0.0662 C.3     
  19 C19            3.6713     0.7895     3.1807 C.ar    
  20 C20            2.9210     0.7258     4.3461 C.ar    
  21 C21            2.1013     1.7876     4.6993 C.ar    
  22 C22            2.0339     2.9057     3.8904 C.ar    
  23 C23            2.7866     2.9689     2.7325 C.ar    
  24 O24            2.9886    -0.3752     5.1398 O.3     
  25 C25            2.1887    -0.3715     6.3240 C.3     
  26 H26           -0.8054     3.3918     0.1981 H       
  27 H27           -1.3788     1.0296    -0.1890 H       
  28 H28            0.3964    -0.6388    -0.4880 H       
  29 H29            1.5524     4.0822     0.3157 H       
  30 H30            1.8617    -1.4823    -1.8475 H       
  31 H31            3.9325    -3.0724    -1.7003 H       
  32 H32            5.7449    -1.9169    -0.1152 H       
  33 H33            5.1856     3.9443     1.5425 H       
  34 H34            6.1830     2.6094     2.1682 H       
  35 H35            5.8363     3.3447    -0.7739 H       
  36 H36            7.2695     3.6954     0.2217 H       
  37 H37            6.8336     2.0097    -0.1482 H       
  38 H38            4.3100    -0.0361     2.9033 H       
  39 H39            1.5160     1.7402     5.6057 H       
  40 H40            1.3959     3.7326     4.1650 H       
  41 H41            2.7325     3.8437     2.1015 H       
  42 H42            2.3359    -1.3063     6.8648 H       
  43 H43            2.4822     0.4652     6.9580 H       
  44 H44            1.1380    -0.2704     6.0523 H       
@<TRIPOS>BOND
   1    1    2 ar
   2    1    6 ar
   3    1   26 1
   4    2    3 ar
   5    2   27 1
   6    3    4 ar
   7    3   28 1
   8    4    5 ar
   9    4    7 1
  10    5    6 ar
  11    5   11 1
  12    6   29 1
  13    7    8 1
  14    7   12 1
  15    8    9 1
  16    8   14 2
  17    9   10 1
  18    9   15 2
  19   10   11 1
  20   10   16 1
  21   10   17 1
  22   12   13 2
  23   12   30 1
  24   13   14 1
  25   13   31 1
  26   14   32 1
  27   16   19 ar
  28   16   23 ar
  29   17   18 1
  30   17   33 1
  31   17   34 1
  32   18   35 1
  33   18   36 1
  34   18   37 1
  35   19   20 ar
  36   19   38 1
  37   20   21 ar
  38   20   24 1
  39   21   22 ar
  40   21   39 1
  41   22   23 ar
  42   22   40 1
  43   23   41 1
  44   24   25 1
  45   25   42 1
  46   25   43 1
  47   25   44 1

#	End of record

