#	Name: ASD07930790
#	Creating user name:	WinNT
#	Creation time:	15. 06. 2019 21:13

#	Modifying user name:	WinNT
#	Modification time:	15. 06. 2019 21:13

#	Program:	/corina/corina34_cracker 3.40 0067  02.08.2006

@<TRIPOS>MOLECULE
ASD07930790
  41   44    0    0    0
SMALL
NO_CHARGES


@<TRIPOS>ATOM
   1 C1            -0.0178     1.4608     0.0101 C.3     
   2 N2             2.1693    -0.4127     0.7956 N.2     
   3 N3             1.3095    -1.7560    -0.9126 N.pl3   
   4 C4             0.2855    -2.8052    -0.9532 C.3     
   5 C5            -1.0793    -2.1691    -1.2510 C.3     
   6 N6             0.0021    -0.0041     0.0020 N.am    
   7 C7             1.1931    -0.7160    -0.0132 C.2     
   8 C8             0.2321    -3.5196     0.3988 C.3     
   9 C9             0.6249    -3.7980    -2.0349 C.2     
  10 C10            1.8552    -4.0935    -2.4310 C.2     
  11 C11            1.9489    -5.0460    -3.4529 C.2     
  12 C12            0.7207    -5.5141    -3.8712 C.2     
  13 S13           -0.5533    -4.7316    -2.9427 S.3     
  14 N14            2.9011    -5.7057    -4.2191 N.pl3   
  15 N15            2.2283    -6.5656    -5.0917 N.2     
  16 C16            0.9443    -6.4593    -4.8939 C.2     
  17 C17            4.2844    -5.5391    -4.1334 C.ar    
  18 N18            4.7801    -4.4038    -3.6676 N.ar    
  19 C19            6.0805    -4.2050    -3.5695 C.ar    
  20 C20            6.9775    -5.1836    -3.9531 C.ar    
  21 C21            6.4973    -6.3896    -4.4474 C.ar    
  22 C22            5.1280    -6.5693    -4.5329 C.ar    
  23 Br23           8.8389    -4.8839    -3.8073 Br      
  24 S24           -1.4044    -0.8976     0.0106 S.o2    
  25 O25           -2.4059     0.0079    -0.4323 O.2     
  26 O26           -1.4530    -1.4753     1.3080 O.2     
  27 H27            1.0048     1.8381     0.0023 H       
  28 H28           -0.5450     1.8219    -0.8730 H       
  29 H29           -0.5280     1.8123     0.9069 H       
  30 H30            2.9950    -0.9212     0.7712 H       
  31 H31            2.0693    -1.7952    -1.5143 H       
  32 H32           -1.0629    -1.7101    -2.2396 H       
  33 H33           -1.8566    -2.9322    -1.2125 H       
  34 H34           -0.0154    -2.8008     1.1800 H       
  35 H35           -0.5290    -4.2992     0.3680 H       
  36 H36            1.2027    -3.9676     0.6115 H       
  37 H37            2.7274    -3.6299    -1.9945 H       
  38 H38            0.1784    -7.0048    -5.4252 H       
  39 H39            6.4486    -3.2653    -3.1849 H       
  40 H40            7.1771    -7.1706    -4.7544 H       
  41 H41            4.7201    -7.4945    -4.9124 H       
@<TRIPOS>BOND
   1    1    6 1
   2    1   27 1
   3    1   28 1
   4    1   29 1
   5    2    7 2
   6    2   30 1
   7    3    4 1
   8    3    7 1
   9    3   31 1
  10    4    5 1
  11    4    8 1
  12    4    9 1
  13    5   24 1
  14    5   32 1
  15    5   33 1
  16    6    7 1
  17    6   24 am
  18    8   34 1
  19    8   35 1
  20    8   36 1
  21    9   10 2
  22    9   13 1
  23   10   11 1
  24   10   37 1
  25   11   12 2
  26   11   14 1
  27   12   13 1
  28   12   16 1
  29   14   15 1
  30   14   17 1
  31   15   16 2
  32   16   38 1
  33   17   18 ar
  34   17   22 ar
  35   18   19 ar
  36   19   20 ar
  37   19   39 1
  38   20   21 ar
  39   20   23 1
  40   21   22 ar
  41   21   40 1
  42   22   41 1
  43   24   25 2
  44   24   26 2

#	End of record

