#	Name: ASD00431194
#	Creating user name:	WinNT
#	Creation time:	15. 06. 2019 18:35

#	Modifying user name:	WinNT
#	Modification time:	15. 06. 2019 18:35

#	Program:	/corina/corina34_cracker 3.40 0067  02.08.2006

@<TRIPOS>MOLECULE
ASD00431194
  52   54    0    0    0
SMALL
NO_CHARGES


@<TRIPOS>ATOM
   1 C1            -0.3777     1.6922    -0.6341 C.2     
   2 C2            -0.5796     0.2391    -0.9788 C.3     
   3 O3             0.7285     2.0998    -0.3494 O.2     
   4 N4            -1.4254     2.5399    -0.6476 N.am    
   5 C5            -1.2291     3.9525    -0.3125 C.3     
   6 C6            -0.7835     4.7157    -1.5614 C.3     
   7 O7            -3.7526     4.2868    -0.2818 O.3     
   8 N8            -4.6027     4.8952     0.3257 N.2     
   9 C9            -4.0767     5.6249     1.2821 C.2     
  10 C10           -2.6704     5.4013     1.2202 C.2     
  11 C11           -2.5237     4.5328     0.1956 C.2     
  12 S12           -4.0643     7.4704     3.5050 S.3     
  13 C13           -5.6064     8.0435     3.9692 C.2     
  14 N14           -6.5253     7.5266     3.2128 N.2     
  15 C15           -6.1305     6.6970     2.2721 C.2     
  16 C16           -4.7962     6.4997     2.2298 C.2     
  17 O17           -5.8364     8.9123     4.9823 O.3     
  18 C18           -7.1279     9.1928     5.3019 C.ar    
  19 C19           -7.8809     8.2725     6.0166 C.ar    
  20 C20           -9.1926     8.5567     6.3416 C.ar    
  21 C21           -9.7578     9.7643     5.9532 C.ar    
  22 C22           -9.0033    10.6852     5.2382 C.ar    
  23 C23           -7.6903    10.4016     4.9182 C.ar    
  24 N24          -11.0869    10.0527     6.2817 N.pl3   
  25 C25          -11.6828    11.3268     5.8718 C.3     
  26 C26          -13.1337    11.3894     6.3532 C.3     
  27 C27          -13.7175    12.7674     6.0352 C.3     
  28 C28          -13.9540    10.3115     5.6419 C.3     
  29 H29            0.3745    -0.2845    -0.9191 H       
  30 H30           -1.2833    -0.2067    -0.2758 H       
  31 H31           -0.9762     0.1575    -1.9908 H       
  32 H32           -2.3094     2.2146    -0.8791 H       
  33 H33           -0.4641     4.0399     0.4590 H       
  34 H34           -1.5485     4.6282    -2.3329 H       
  35 H35           -0.6374     5.7667    -1.3121 H       
  36 H36            0.1529     4.2959    -1.9289 H       
  37 H37           -1.9007     5.8275     1.8465 H       
  38 H38           -6.8160     6.2142     1.5914 H       
  39 H39           -7.4412     7.3334     6.3185 H       
  40 H40           -9.7789     7.8398     6.8973 H       
  41 H41           -9.4423    11.6244     4.9355 H       
  42 H42           -7.1021    11.1195     4.3657 H       
  43 H43          -11.6137     9.4092     6.7808 H       
  44 H44          -11.1185    12.1496     6.3107 H       
  45 H45          -11.6567    11.4071     4.7851 H       
  46 H46          -13.1671    11.2203     7.4295 H       
  47 H47          -13.6842    12.9366     4.9589 H       
  48 H48          -14.7512    12.8121     6.3781 H       
  49 H49          -13.1331    13.5354     6.5419 H       
  50 H50          -14.9877    10.3561     5.9849 H       
  51 H51          -13.9207    10.4806     4.5657 H       
  52 H52          -13.5381     9.3297     5.8685 H       
@<TRIPOS>BOND
   1    1    2 1
   2    1    3 2
   3    1    4 am
   4    2   29 1
   5    2   30 1
   6    2   31 1
   7    4    5 1
   8    4   32 1
   9    5    6 1
  10    5   11 1
  11    5   33 1
  12    6   34 1
  13    6   35 1
  14    6   36 1
  15    7    8 1
  16    7   11 1
  17    8    9 2
  18    9   10 1
  19    9   16 1
  20   10   11 2
  21   10   37 1
  22   12   13 1
  23   12   16 1
  24   13   14 2
  25   13   17 1
  26   14   15 1
  27   15   16 2
  28   15   38 1
  29   17   18 1
  30   18   19 ar
  31   18   23 ar
  32   19   20 ar
  33   19   39 1
  34   20   21 ar
  35   20   40 1
  36   21   22 ar
  37   21   24 1
  38   22   23 ar
  39   22   41 1
  40   23   42 1
  41   24   25 1
  42   24   43 1
  43   25   26 1
  44   25   44 1
  45   25   45 1
  46   26   27 1
  47   26   28 1
  48   26   46 1
  49   27   47 1
  50   27   48 1
  51   27   49 1
  52   28   50 1
  53   28   51 1
  54   28   52 1

#	End of record

