#	Name: ASD01208032
#	Creating user name:	WinNT
#	Creation time:	15. 06. 2019 19:09

#	Modifying user name:	WinNT
#	Modification time:	15. 06. 2019 19:09

#	Program:	/corina/corina34_cracker 3.40 0067  02.08.2006

@<TRIPOS>MOLECULE
ASD01208032
  59   62    0    0    0
SMALL
NO_CHARGES


@<TRIPOS>ATOM
   1 C1            -0.0846     1.4337     0.0272 C.ar    
   2 C2             0.0181     0.0509    -0.0134 C.ar    
   3 C3            -1.1251    -0.7352     0.0259 C.ar    
   4 C4            -2.3738    -0.1413     0.1058 C.ar    
   5 C5            -2.4813     1.2495     0.1473 C.ar    
   6 C6            -1.3292     2.0357     0.1133 C.ar    
   7 C7            -3.8119     1.8877     0.2325 C.2     
   8 C8            -4.0551     3.2418     0.2796 C.2     
   9 N9            -5.0116     1.2349     0.2722 N.pl3   
  10 C10           -6.0167     2.1699     0.3495 C.2     
  11 C11           -5.4373     3.4202     0.3550 C.2     
  12 O12            1.0379     2.1989    -0.0119 O.3     
  13 C13            0.8560     3.6141    -0.0912 C.3     
  14 C14            2.0901     4.2518    -0.7324 C.3     
  15 O15            3.2211     4.0632     0.1203 O.3     
  16 C16            0.6609     4.1827     1.3158 C.3     
  17 O17           -1.0191    -2.0893    -0.0146 O.3     
  18 C18           -1.4878    -2.7333    -1.1156 C.ar    
  19 C19           -1.9380    -2.0051    -2.2076 C.ar    
  20 C20           -1.5116    -4.1202    -1.1520 C.ar    
  21 C21           -1.9881    -4.7723    -2.2726 C.ar    
  22 C22           -2.4411    -4.0443    -3.3574 C.ar    
  23 C23           -2.4135    -2.6622    -3.3257 C.ar    
  24 S24           -3.0476    -4.8793    -4.7855 S.o2    
  25 C25           -4.8222    -5.0846    -4.4702 C.3     
  26 O26           -2.8329    -3.9594    -5.8470 O.2     
  27 O27           -2.3882    -6.1379    -4.7621 O.2     
  28 C28           -7.4574     1.8856     0.4120 C.2     
  29 N29           -8.3639     2.8163     0.4839 N.2     
  30 C30           -9.6899     2.1712     0.5452 C.3     
  31 C31           -9.3214     0.7061     0.8832 C.3     
  32 O32           -7.9647     0.6341     0.3945 O.3     
  33 C33           -9.3807     0.4590     2.3920 C.3     
  34 H34            0.9903    -0.4153    -0.0760 H       
  35 H35           -3.2629    -0.7536     0.1356 H       
  36 H36           -1.4081     3.1123     0.1456 H       
  37 H37           -3.3110     4.0244     0.2618 H       
  38 H38           -5.1337     0.2729     0.2493 H       
  39 H39           -5.9576     4.3651     0.4080 H       
  40 H40           -0.0230     3.8340    -0.6971 H       
  41 H41            2.2808     3.7834    -1.6980 H       
  42 H42            1.9157     5.3184    -0.8741 H       
  43 H43            4.0410     4.4431    -0.2241 H       
  44 H44           -0.2183     3.7284     1.7726 H       
  45 H45            1.5399     3.9628     1.9217 H       
  46 H46            0.5221     5.2622     1.2554 H       
  47 H47           -1.9170    -0.9256    -2.1832 H       
  48 H48           -1.1576    -4.6892    -0.3051 H       
  49 H49           -2.0065    -5.8518    -2.3017 H       
  50 H50           -2.7682    -2.0959    -4.1742 H       
  51 H51           -5.2845    -4.1055    -4.3443 H       
  52 H52           -5.2839    -5.5986    -5.3132 H       
  53 H53           -4.9645    -5.6729    -3.5637 H       
  54 H54          -10.3004     2.6107     1.3340 H       
  55 H55          -10.1974     2.2326    -0.4175 H       
  56 H56           -9.9649     0.0075     0.3484 H       
  57 H57          -10.3898     0.6576     2.7533 H       
  58 H58           -9.1174    -0.5778     2.6010 H       
  59 H59           -8.6773     1.1213     2.8965 H       
@<TRIPOS>BOND
   1    1    2 ar
   2    1   12 1
   3    1    6 ar
   4    2    3 ar
   5    2   34 1
   6    3    4 ar
   7    3   17 1
   8    4    5 ar
   9    4   35 1
  10    5    6 ar
  11    5    7 1
  12    6   36 1
  13    7    8 2
  14    7    9 1
  15    8   11 1
  16    8   37 1
  17    9   10 1
  18    9   38 1
  19   10   11 2
  20   10   28 1
  21   11   39 1
  22   12   13 1
  23   13   14 1
  24   13   16 1
  25   13   40 1
  26   14   15 1
  27   14   41 1
  28   14   42 1
  29   15   43 1
  30   16   44 1
  31   16   45 1
  32   16   46 1
  33   17   18 1
  34   18   19 ar
  35   18   20 ar
  36   19   23 ar
  37   19   47 1
  38   20   21 ar
  39   20   48 1
  40   21   22 ar
  41   21   49 1
  42   22   23 ar
  43   22   24 1
  44   23   50 1
  45   24   25 1
  46   24   26 2
  47   24   27 2
  48   25   51 1
  49   25   52 1
  50   25   53 1
  51   28   29 2
  52   28   32 1
  53   29   30 1
  54   30   31 1
  55   30   54 1
  56   30   55 1
  57   31   32 1
  58   31   33 1
  59   31   56 1
  60   33   57 1
  61   33   58 1
  62   33   59 1

#	End of record

