#	Name: ASD02030118
#	Creating user name:	WinNT
#	Creation time:	15. 06. 2019 20:14

#	Modifying user name:	WinNT
#	Modification time:	15. 06. 2019 20:14

#	Program:	/corina/corina34_cracker 3.40 0067  02.08.2006

@<TRIPOS>MOLECULE
ASD02030118
  64   68    0    0    0
SMALL
NO_CHARGES


@<TRIPOS>ATOM
   1 N1            -0.1415     1.4437    -0.8335 N.am    
   2 C2            -0.1616    -0.0231    -0.7458 C.3     
   3 C3            -0.9371    -0.4281     0.5140 C.3     
   4 N4            -2.2134     0.3002     0.5342 N.am    
   5 C5            -2.1932     1.7671     0.4464 C.3     
   6 C6            -1.4175     2.1724    -0.8077 C.3     
   7 C7             1.0266     2.1092    -0.9304 C.2     
   8 C8             2.3059     1.3783    -0.8091 C.2     
   9 N9             3.5038     1.9193    -0.7533 N.2     
  10 N10            2.4499     0.0426    -0.7304 N.2     
  11 C11            3.7313    -0.2053    -0.6336 C.2     
  12 N12            4.3779     0.9783    -0.6492 N.pl3   
  13 O13            1.0282     3.3103    -1.1174 O.2     
  14 C14           -3.3814    -0.3652     0.6310 C.2     
  15 C15           -3.3932    -1.8443     0.6190 C.ar    
  16 O16           -4.4251     0.2501     0.7282 O.2     
  17 C17           -1.1499     3.6786    -0.7816 C.3     
  18 C18           -2.2306     1.8133    -2.0529 C.3     
  19 C19            5.7657     1.1548    -0.5666 C.ar    
  20 C20            6.3073     2.4331    -0.5937 C.ar    
  21 C21            7.6754     2.6037    -0.5121 C.ar    
  22 C22            8.5057     1.5032    -0.4040 C.ar    
  23 C23            7.9693     0.2289    -0.3767 C.ar    
  24 C24            6.6016     0.0521    -0.4517 C.ar    
  25 N25           -2.3077    -2.5093     1.0267 N.ar    
  26 C26           -2.2469    -3.8217     1.0434 C.ar    
  27 C27           -3.3564    -4.5881     0.6198 C.ar    
  28 C28           -4.5247    -3.9142     0.1808 C.ar    
  29 C29           -4.5288    -2.5073     0.1916 C.ar    
  30 O30           -1.1188    -4.4413     1.4670 O.3     
  31 C31           -0.0359    -3.6057     1.8805 C.3     
  32 C32           -3.3316    -5.9883     0.6219 C.ar    
  33 C33           -4.4284    -6.6818     0.2030 C.ar    
  34 C34           -5.5754    -6.0202    -0.2279 C.ar    
  35 C35           -5.6351    -4.6584    -0.2430 C.ar    
  36 C36            1.1415    -4.4776     2.3215 C.3     
  37 H37           -0.6536    -0.4356    -1.6266 H       
  38 H38            0.8593    -0.4000    -0.6838 H       
  39 H39           -1.1284    -1.5011     0.4966 H       
  40 H40           -0.3556    -0.1720     1.3996 H       
  41 H41           -3.2141     2.1439     0.3845 H       
  42 H42           -1.7012     2.1796     1.3273 H       
  43 H43            4.1879    -1.1807    -0.5526 H       
  44 H44           -0.3420     3.8921    -0.0818 H       
  45 H45           -0.8652     4.0144    -1.7787 H       
  46 H46           -2.0521     4.2025    -0.4657 H       
  47 H47           -3.1834     2.3423    -2.0298 H       
  48 H48           -1.6758     2.1031    -2.9453 H       
  49 H49           -2.4121     0.7387    -2.0709 H       
  50 H50            5.6594     3.2929    -0.6789 H       
  51 H51            8.0972     3.5977    -0.5332 H       
  52 H52            9.5752     1.6392    -0.3411 H       
  53 H53            8.6203    -0.6286    -0.2922 H       
  54 H54            6.1832    -0.9434    -0.4300 H       
  55 H55           -5.3984    -1.9563    -0.1347 H       
  56 H56            0.2725    -2.9724     1.0486 H       
  57 H57           -0.3570    -2.9804     2.7135 H       
  58 H58           -2.4491    -6.5156     0.9529 H       
  59 H59           -4.4070    -7.7616     0.2051 H       
  60 H60           -6.4300    -6.5941    -0.5545 H       
  61 H61           -6.5305    -4.1566    -0.5791 H       
  62 H62            1.9676    -3.8402     2.6369 H       
  63 H63            0.8331    -5.1108     3.1533 H       
  64 H64            1.4626    -5.1029     1.4884 H       
@<TRIPOS>BOND
   1    1    2 1
   2    1    7 am
   3    1    6 1
   4    2    3 1
   5    2   37 1
   6    2   38 1
   7    3    4 1
   8    3   39 1
   9    3   40 1
  10    4    5 1
  11    4   14 am
  12    5    6 1
  13    5   41 1
  14    5   42 1
  15    6   17 1
  16    6   18 1
  17    7    8 1
  18    7   13 2
  19    8    9 2
  20    8   10 1
  21    9   12 1
  22   10   11 2
  23   11   12 1
  24   11   43 1
  25   12   19 1
  26   14   15 1
  27   14   16 2
  28   15   25 ar
  29   15   29 ar
  30   17   44 1
  31   17   45 1
  32   17   46 1
  33   18   47 1
  34   18   48 1
  35   18   49 1
  36   19   20 ar
  37   19   24 ar
  38   20   21 ar
  39   20   50 1
  40   21   22 ar
  41   21   51 1
  42   22   23 ar
  43   22   52 1
  44   23   24 ar
  45   23   53 1
  46   24   54 1
  47   25   26 ar
  48   26   27 ar
  49   26   30 1
  50   27   28 ar
  51   27   32 ar
  52   28   29 ar
  53   28   35 ar
  54   29   55 1
  55   30   31 1
  56   31   36 1
  57   31   56 1
  58   31   57 1
  59   32   33 ar
  60   32   58 1
  61   33   34 ar
  62   33   59 1
  63   34   35 ar
  64   34   60 1
  65   35   61 1
  66   36   62 1
  67   36   63 1
  68   36   64 1

#	End of record

