#	Name: ASD02562021
#	Creating user name:	WinNT
#	Creation time:	15. 06. 2019 20:25

#	Modifying user name:	WinNT
#	Modification time:	15. 06. 2019 20:25

#	Program:	/corina/corina34_cracker 3.40 0067  02.08.2006

@<TRIPOS>MOLECULE
ASD02562021
  46   49    0    0    0
SMALL
NO_CHARGES


@<TRIPOS>ATOM
   1 C1            -1.1123     1.5055     0.6520 C.ar    
   2 C2            -1.0587     0.1386     0.8586 C.ar    
   3 C3            -1.2179    -0.7366    -0.2077 C.ar    
   4 C4            -1.4315    -0.2431    -1.4838 C.ar    
   5 C5            -1.4864     1.1355    -1.6944 C.ar    
   6 C6            -1.3301     2.0083    -0.6160 C.ar    
   7 Cl7           -0.9122     2.5918     1.9912 Cl      
   8 O8            -1.1634    -2.0783     0.0011 O.3     
   9 C9             0.0420    -2.6943    -0.1192 C.ar    
  10 C10            0.1279    -4.0773    -0.0284 C.ar    
  11 C11            1.3542    -4.7040    -0.1513 C.ar    
  12 C12            2.4964    -3.9561    -0.3640 C.ar    
  13 C13            2.4154    -2.5737    -0.4549 C.ar    
  14 C14            1.1865    -1.9430    -0.3383 C.ar    
  15 Cl15          -1.3051    -5.0198     0.2399 Cl      
  16 O16            3.5397    -1.8390    -0.6638 O.3     
  17 C17            4.7706    -2.5555    -0.7803 C.3     
  18 C18            5.8987    -1.5824    -1.0073 C.2     
  19 N19            7.1604    -1.8975    -1.1581 N.2     
  20 N20            7.8939    -0.7192    -1.3466 N.pl3   
  21 C21            7.0187     0.3256    -1.3033 C.2     
  22 C22            5.7719    -0.1967    -1.0978 C.2     
  23 C23            7.3548     1.7570    -1.4550 C.ar    
  24 C24            8.6803     2.1443    -1.6664 C.ar    
  25 C25            8.9926     3.4718    -1.8076 C.ar    
  26 C26            7.9843     4.4379    -1.7401 C.ar    
  27 C27            6.6580     4.0497    -1.5286 C.ar    
  28 C28            6.3462     2.7214    -1.3927 C.ar    
  29 C29            8.3100     5.8246    -1.8871 C.1     
  30 N30            8.5683     6.9247    -2.0037 N.1     
  31 C31           -1.7069     1.6530    -3.0114 C.1     
  32 N32           -1.8819     2.0634    -4.0560 N.1     
  33 H33           -0.8922    -0.2492     1.8527 H       
  34 H34           -1.5550    -0.9231    -2.3137 H       
  35 H35           -1.3718     3.0758    -0.7742 H       
  36 H36            1.4194    -5.7797    -0.0805 H       
  37 H37            3.4532    -4.4478    -0.4593 H       
  38 H38            1.1219    -0.8672    -0.4092 H       
  39 H39            4.9530    -3.1158     0.1368 H       
  40 H40            4.7111    -3.2456    -1.6219 H       
  41 H41            8.8522    -0.6575    -1.4834 H       
  42 H42            4.8531     0.3646    -1.0140 H       
  43 H43            9.4592     1.3979    -1.7181 H       
  44 H44           10.0174     3.7712    -1.9707 H       
  45 H45            5.8787     4.7956    -1.4759 H       
  46 H46            5.3216     2.4213    -1.2297 H       
@<TRIPOS>BOND
   1    1    2 ar
   2    1    7 1
   3    1    6 ar
   4    2    3 ar
   5    2   33 1
   6    3    4 ar
   7    3    8 1
   8    4    5 ar
   9    4   34 1
  10    5    6 ar
  11    5   31 1
  12    6   35 1
  13    8    9 1
  14    9   10 ar
  15    9   14 ar
  16   10   11 ar
  17   10   15 1
  18   11   12 ar
  19   11   36 1
  20   12   13 ar
  21   12   37 1
  22   13   14 ar
  23   13   16 1
  24   14   38 1
  25   16   17 1
  26   17   18 1
  27   17   39 1
  28   17   40 1
  29   18   19 2
  30   18   22 1
  31   19   20 1
  32   20   21 1
  33   20   41 1
  34   21   22 2
  35   21   23 1
  36   22   42 1
  37   23   24 ar
  38   23   28 ar
  39   24   25 ar
  40   24   43 1
  41   25   26 ar
  42   25   44 1
  43   26   27 ar
  44   26   29 1
  45   27   28 ar
  46   27   45 1
  47   28   46 1
  48   29   30 3
  49   31   32 3

#	End of record

