#	Name: ASD06660138
#	Creating user name:	WinNT
#	Creation time:	15. 06. 2019 21:08

#	Modifying user name:	WinNT
#	Modification time:	15. 06. 2019 21:08

#	Program:	/corina/corina34_cracker 3.40 0067  02.08.2006

@<TRIPOS>MOLECULE
ASD06660138
  80   83    0    0    0
SMALL
NO_CHARGES


@<TRIPOS>ATOM
   1 C1             0.3033     1.9444     1.0349 C.2     
   2 C2             0.0502     0.5518     0.5176 C.3     
   3 C3            -1.0902     0.5859    -0.5018 C.3     
   4 O4             1.3865     2.4578     0.8829 O.2     
   5 O5            -0.6762     2.6167     1.6597 O.3     
   6 C6            -1.4313    -0.8208    -0.9212 C.ar    
   7 C7            -2.3593    -1.5497    -0.2002 C.ar    
   8 C8            -2.6743    -2.8391    -0.5817 C.ar    
   9 C9            -2.0577    -3.4037    -1.6911 C.ar    
  10 C10           -1.1260    -2.6687    -2.4131 C.ar    
  11 C11           -0.8199    -1.3778    -2.0294 C.ar    
  12 N12           -2.3736    -4.7076    -2.0795 N.3     
  13 C13           -1.6099    -5.1016    -3.2702 C.3     
  14 C14           -2.0852    -6.4744    -3.7515 C.3     
  15 C15           -1.8856    -7.4996    -2.6319 C.3     
  16 C16           -2.6518    -7.0411    -1.3881 C.3     
  17 C17           -2.1601    -5.6519    -0.9753 C.3     
  18 C18           -2.4150    -8.8616    -3.0854 C.3     
  19 N19           -2.1163    -9.8669    -2.0625 N.pl3   
  20 C20           -2.5033   -11.1885    -2.2528 C.ar    
  21 C21           -3.1728   -11.5485    -3.4154 C.ar    
  22 C22           -3.5532   -12.8728    -3.5917 C.ar    
  23 C23           -3.2450   -13.7907    -2.5877 C.ar    
  24 C24           -2.5783   -13.3587    -1.4617 C.ar    
  25 N25           -2.2252   -12.0935    -1.3260 N.ar    
  26 O26           -4.2095   -13.2641    -4.7138 O.3     
  27 C27           -4.5621   -14.6455    -4.8107 C.3     
  28 C28            2.2855    -0.4116     0.6292 C.2     
  29 C29            3.5450    -0.8419    -0.0145 C.ar    
  30 C30            3.7703    -2.1937    -0.2800 C.ar    
  31 C31            4.9473    -2.5885    -0.8812 C.ar    
  32 C32            5.9039    -1.6478    -1.2205 C.ar    
  33 C33            5.6869    -0.3066    -0.9601 C.ar    
  34 C34            4.5114     0.1022    -0.3645 C.ar    
  35 O35            2.1713    -0.4661     1.8381 O.2     
  36 N36            1.2640     0.0413    -0.1244 N.am    
  37 C37            7.1879    -2.0865    -1.8762 C.3     
  38 F38            7.0269    -2.0826    -3.2659 F       
  39 F39            8.2162    -1.2060    -1.5234 F       
  40 F40            7.5126    -3.3782    -1.4480 F       
  41 C41            4.2742     1.5643    -0.0867 C.3     
  42 C42            2.7301    -3.2195     0.0897 C.3     
  43 C43            1.7108    -3.3440    -1.0444 C.3     
  44 H44           -0.2235    -0.0998     1.3473 H       
  45 H45           -1.9660     1.0534    -0.0518 H       
  46 H46           -0.7801     1.1602    -1.3749 H       
  47 H47           -0.4665     3.5068     1.9740 H       
  48 H48           -2.8380    -1.1103     0.6625 H       
  49 H49           -3.3988    -3.4080    -0.0180 H       
  50 H50           -0.6448    -3.1046    -3.2761 H       
  51 H51           -0.0991    -0.8041    -2.5931 H       
  52 H52           -1.7639    -4.3665    -4.0601 H       
  53 H53           -0.5497    -5.1509    -3.0219 H       
  54 H54           -3.1420    -6.4224    -4.0132 H       
  55 H55           -1.5075    -6.7735    -4.6261 H       
  56 H56           -0.8243    -7.5803    -2.3968 H       
  57 H57           -3.7176    -6.9980    -1.6125 H       
  58 H58           -2.4789    -7.7451    -0.5741 H       
  59 H59           -1.0973    -5.6986    -0.7377 H       
  60 H60           -2.7137    -5.3164    -0.0984 H       
  61 H61           -3.4934    -8.8017    -3.2320 H       
  62 H62           -1.9360    -9.1438    -4.0229 H       
  63 H63           -1.6486    -9.6104    -1.2523 H       
  64 H64           -3.3946   -10.8094    -4.1711 H       
  65 H65           -3.5260   -14.8284    -2.6915 H       
  66 H66           -2.3373   -14.0655    -0.6815 H       
  67 H67           -3.6590   -15.2546    -4.7722 H       
  68 H68           -5.2161   -14.9126    -3.9807 H       
  69 H69           -5.0801   -14.8230    -5.7532 H       
  70 H70            5.1229    -3.6340    -1.0872 H       
  71 H71            6.4375     0.4225    -1.2275 H       
  72 H72            1.3325     0.0291    -1.0919 H       
  73 H73            4.6540     1.8121     0.9045 H       
  74 H74            4.7917     2.1648    -0.8348 H       
  75 H75            3.2052     1.7734    -0.1290 H       
  76 H76            3.2122    -4.1835     0.2524 H       
  77 H77            2.2219    -2.9089     1.0026 H       
  78 H78            1.3006    -2.3605    -1.2738 H       
  79 H79            2.2003    -3.7490    -1.9301 H       
  80 H80            0.9053    -4.0111    -0.7374 H       
@<TRIPOS>BOND
   1    1    2 1
   2    1    4 2
   3    1    5 1
   4    2    3 1
   5    2   36 1
   6    2   44 1
   7    3    6 1
   8    3   45 1
   9    3   46 1
  10    5   47 1
  11    6    7 ar
  12    6   11 ar
  13    7    8 ar
  14    7   48 1
  15    8    9 ar
  16    8   49 1
  17    9   10 ar
  18    9   12 1
  19   10   11 ar
  20   10   50 1
  21   11   51 1
  22   12   13 1
  23   12   17 1
  24   13   14 1
  25   13   52 1
  26   13   53 1
  27   14   15 1
  28   14   54 1
  29   14   55 1
  30   15   16 1
  31   15   18 1
  32   15   56 1
  33   16   17 1
  34   16   57 1
  35   16   58 1
  36   17   59 1
  37   17   60 1
  38   18   19 1
  39   18   61 1
  40   18   62 1
  41   19   20 1
  42   19   63 1
  43   20   21 ar
  44   20   25 ar
  45   21   22 ar
  46   21   64 1
  47   22   23 ar
  48   22   26 1
  49   23   24 ar
  50   23   65 1
  51   24   25 ar
  52   24   66 1
  53   26   27 1
  54   27   67 1
  55   27   68 1
  56   27   69 1
  57   28   29 1
  58   28   35 2
  59   28   36 am
  60   29   30 ar
  61   29   34 ar
  62   30   31 ar
  63   30   42 1
  64   31   32 ar
  65   31   70 1
  66   32   33 ar
  67   32   37 1
  68   33   34 ar
  69   33   71 1
  70   34   41 1
  71   36   72 1
  72   37   38 1
  73   37   39 1
  74   37   40 1
  75   41   73 1
  76   41   74 1
  77   41   75 1
  78   42   43 1
  79   42   76 1
  80   42   77 1
  81   43   78 1
  82   43   79 1
  83   43   80 1

#	End of record

