#	Name: ASD01883336
#	Creating user name:	WinNT
#	Creation time:	15. 06. 2019 19:46

#	Modifying user name:	WinNT
#	Modification time:	15. 06. 2019 19:46

#	Program:	/corina/corina34_cracker 3.40 0067  02.08.2006

@<TRIPOS>MOLECULE
ASD01883336
  61   63    0    0    0
SMALL
NO_CHARGES


@<TRIPOS>ATOM
   1 N1             0.0038     1.3058     0.0348 N.am    
   2 C2            -0.8400     1.5171    -0.9925 C.2     
   3 C3            -2.0913     0.8553    -1.0252 C.2     
   4 C4            -2.4225    -0.0124     0.0251 C.2     
   5 C5            -1.5011    -0.1924     1.0696 C.2     
   6 C6            -0.3173     0.4608     1.0477 C.2     
   7 O7            -0.5274     2.2772    -1.8932 O.2     
   8 C8            -3.0014     1.0685    -2.1100 C.1     
   9 N9            -3.7233     1.2377    -2.9706 N.1     
  10 O10           -3.6076    -0.6636     0.0325 O.3     
  11 C11            1.2956     1.9964     0.0573 C.3     
  12 C12            1.1459     3.3348     0.7833 C.3     
  13 C13            2.4951     4.0560     0.8068 C.3     
  14 C14            2.9067     4.4146    -0.6225 C.3     
  15 C15            2.3756     5.3343     1.6390 C.3     
  16 C16           -3.5664    -2.0870    -0.0870 C.3     
  17 C17           -4.9703    -2.6342    -0.0598 C.ar    
  18 C18           -5.6748    -2.7864    -1.2403 C.ar    
  19 C19           -6.9641    -3.2882    -1.2230 C.ar    
  20 C20           -7.5545    -3.6397    -0.0265 C.ar    
  21 C21           -6.8490    -3.4888     1.1667 C.ar    
  22 C22           -5.5486    -2.9878     1.1426 C.ar    
  23 C23           -7.4782    -3.8642     2.4558 C.ar    
  24 C24           -8.7785    -4.3695     2.4757 C.ar    
  25 C25           -9.3635    -4.7188     3.6716 C.ar    
  26 C26           -8.6544    -4.5672     4.8664 C.ar    
  27 C27           -7.3518    -4.0609     4.8450 C.ar    
  28 C28           -6.7672    -3.7173     3.6471 C.ar    
  29 C29           -9.2806    -4.9408     6.1496 C.2     
  30 O30          -10.4130    -5.3805     6.1676 O.2     
  31 O31           -8.5964    -4.7944     7.3010 O.3     
  32 C32           -9.2748    -5.1822     8.5248 C.3     
  33 C33           -8.3475    -4.9462     9.7187 C.3     
  34 H34           -1.7364    -0.8560     1.8886 H       
  35 H35            0.3832     0.3140     1.8564 H       
  36 H36            2.0280     1.3801     0.5789 H       
  37 H37            1.6311     2.1729    -0.9646 H       
  38 H38            0.4136     3.9511     0.2617 H       
  39 H39            0.8104     3.1584     1.8052 H       
  40 H40            3.2481     3.4037     1.2489 H       
  41 H41            3.8678     4.9284    -0.6058 H       
  42 H42            2.9917     3.5039    -1.2154 H       
  43 H43            2.1536     5.0669    -1.0647 H       
  44 H44            2.0824     5.0789     2.6573 H       
  45 H45            3.3368     5.8481     1.6557 H       
  46 H46            1.6226     5.9867     1.1969 H       
  47 H47           -3.0887    -2.3589    -1.0282 H       
  48 H48           -2.9974    -2.5050     0.7434 H       
  49 H49           -5.2168    -2.5123    -2.1791 H       
  50 H50           -7.5096    -3.4046    -2.1478 H       
  51 H51           -8.5612    -4.0305    -0.0141 H       
  52 H52           -4.9973    -2.8691     2.0637 H       
  53 H53           -9.3264    -4.4862     1.5523 H       
  54 H54          -10.3703    -5.1095     3.6868 H       
  55 H55           -6.8028    -3.9429     5.7676 H       
  56 H56           -5.7607    -3.3261     3.6303 H       
  57 H57          -10.1792    -4.5855     8.6436 H       
  58 H58           -9.5403    -6.2382     8.4741 H       
  59 H59           -7.4432    -5.5429     9.5999 H       
  60 H60           -8.0821    -3.8902     9.7694 H       
  61 H61           -8.8568    -5.2373    10.6374 H       
@<TRIPOS>BOND
   1    1    2 am
   2    1   11 1
   3    1    6 1
   4    2    3 1
   5    2    7 2
   6    3    4 2
   7    3    8 1
   8    4    5 1
   9    4   10 1
  10    5    6 2
  11    5   34 1
  12    6   35 1
  13    8    9 3
  14   10   16 1
  15   11   12 1
  16   11   36 1
  17   11   37 1
  18   12   13 1
  19   12   38 1
  20   12   39 1
  21   13   14 1
  22   13   15 1
  23   13   40 1
  24   14   41 1
  25   14   42 1
  26   14   43 1
  27   15   44 1
  28   15   45 1
  29   15   46 1
  30   16   17 1
  31   16   47 1
  32   16   48 1
  33   17   18 ar
  34   17   22 ar
  35   18   19 ar
  36   18   49 1
  37   19   20 ar
  38   19   50 1
  39   20   21 ar
  40   20   51 1
  41   21   22 ar
  42   21   23 1
  43   22   52 1
  44   23   24 ar
  45   23   28 ar
  46   24   25 ar
  47   24   53 1
  48   25   26 ar
  49   25   54 1
  50   26   27 ar
  51   26   29 1
  52   27   28 ar
  53   27   55 1
  54   28   56 1
  55   29   30 2
  56   29   31 1
  57   31   32 1
  58   32   33 1
  59   32   57 1
  60   32   58 1
  61   33   59 1
  62   33   60 1
  63   33   61 1

#	End of record

