#	Name: ASD01310041
#	Creating user name:	WinNT
#	Creation time:	15. 06. 2019 19:15

#	Modifying user name:	WinNT
#	Modification time:	15. 06. 2019 19:15

#	Program:	/corina/corina34_cracker 3.40 0067  02.08.2006

@<TRIPOS>MOLECULE
ASD01310041
  45   49    0    0    0
SMALL
NO_CHARGES


@<TRIPOS>ATOM
   1 C1            -0.0183     1.4948     0.0107 C.3     
   2 C2             0.0040    -0.0034     0.0020 C.ar    
   3 C3             0.0523    -0.7294     1.1831 C.ar    
   4 C4            -0.1950     1.2423     2.4966 C.2     
   5 C5            -0.0208    -0.6750    -1.2091 C.ar    
   6 C6             0.0121    -2.0556    -1.2427 C.ar    
   7 C7             0.0708    -2.7784    -0.0654 C.ar    
   8 C8             0.0913    -2.1176     1.1469 C.ar    
   9 N9             1.4201     3.2340     0.8878 N.am    
  10 C10            1.4124     2.0597     0.0014 C.3     
  11 C11           -0.6273     2.0540     1.3095 C.3     
  12 C12            0.0553     3.4442     1.4040 C.3     
  13 N13            0.0590    -0.0697     2.4139 N.am    
  14 O14           -0.0710     1.7952     3.5689 O.2     
  15 S15            2.7420     4.1648     1.2460 S.o2    
  16 O16            2.4655     4.7924     2.4906 O.2     
  17 O17            3.8816     3.3453     1.0251 O.2     
  18 C18            2.8145     5.4520     0.0450 C.ar    
  19 C19            3.5170     5.2601    -1.1302 C.ar    
  20 C20            2.1641     6.6495     0.2773 C.ar    
  21 C21            2.9319     7.4717    -1.8471 C.ar    
  22 C22            3.5767     6.2669    -2.0756 C.ar    
  23 C23            2.2193     7.6629    -0.6659 C.ar    
  24 O24            1.6759     8.9150    -0.6820 O.3     
  25 C25            2.3992     9.6349    -1.6977 C.3     
  26 O26            2.8344     8.6038    -2.6035 O.3     
  27 H27           -0.5685     1.8626    -0.8554 H       
  28 H28           -1.7132     2.1239     1.2470 H       
  29 C29            0.3482    -0.8258     3.6349 C.3     
  30 H30           -0.0665    -0.1163    -2.1322 H       
  31 H31           -0.0085    -2.5719    -2.1911 H       
  32 H32            0.1005    -3.8576    -0.0940 H       
  33 H33            0.1370    -2.6803     2.0675 H       
  34 H34            2.1101     1.3094     0.3733 H       
  35 H35            1.6875     2.3568    -1.0106 H       
  36 H36            0.0897     3.7797     2.4405 H       
  37 H37           -0.4755     4.1696     0.7875 H       
  38 H38            4.0206     4.3217    -1.3099 H       
  39 H39            1.6124     6.7951     1.1943 H       
  40 H40            4.1265     6.1144    -2.9926 H       
  41 H41            1.7434    10.3407    -2.2074 H       
  42 H42            3.2562    10.1509    -1.2646 H       
  43 H43            1.3020    -1.3418     3.5254 H       
  44 H44            0.4004    -0.1418     4.4820 H       
  45 H45           -0.4426    -1.5562     3.8059 H       
@<TRIPOS>BOND
   1    1    2 1
   2    1   10 1
   3    1   11 1
   4    1   27 1
   5    2    3 ar
   6    2    5 ar
   7    3   13 1
   8    3    8 ar
   9    4   11 1
  10    4   14 2
  11    4   13 am
  12    5    6 ar
  13    5   30 1
  14    6    7 ar
  15    6   31 1
  16    7    8 ar
  17    7   32 1
  18    8   33 1
  19    9   10 1
  20    9   12 1
  21    9   15 am
  22   10   34 1
  23   10   35 1
  24   11   12 1
  25   11   28 1
  26   12   36 1
  27   12   37 1
  28   13   29 1
  29   15   16 2
  30   15   17 2
  31   15   18 1
  32   18   20 ar
  33   18   19 ar
  34   19   22 ar
  35   19   38 1
  36   20   23 ar
  37   20   39 1
  38   21   22 ar
  39   21   26 1
  40   21   23 ar
  41   22   40 1
  42   23   24 1
  43   24   25 1
  44   25   26 1
  45   25   41 1
  46   25   42 1
  47   29   43 1
  48   29   44 1
  49   29   45 1

#	End of record

