#	Name: ASD05790047
#	Creating user name:	WinNT
#	Creation time:	15. 06. 2019 21:03

#	Modifying user name:	WinNT
#	Modification time:	15. 06. 2019 21:03

#	Program:	/corina/corina34_cracker 3.40 0067  02.08.2006

@<TRIPOS>MOLECULE
ASD05790047
  42   45    0    0    0
SMALL
NO_CHARGES


@<TRIPOS>ATOM
   1 C1            -0.1753     1.4733    -0.5693 C.2     
   2 C2            -0.1532    -0.0033    -0.5732 C.ar    
   3 C3             0.8992    -0.6880    -1.1878 C.ar    
   4 C4             0.9135    -2.0684    -1.1871 C.ar    
   5 C5            -0.1117    -2.7736    -0.5798 C.ar    
   6 C6            -1.1571    -2.1001     0.0308 C.ar    
   7 C7            -1.1805    -0.7216     0.0423 C.ar    
   8 O8             0.7231     2.0961    -1.1015 O.2     
   9 N9            -1.1942     2.1305     0.0193 N.am    
  10 C10           -1.1619     3.5228     0.1191 C.ar    
  11 C11           -2.3411     4.2531     0.0191 C.ar    
  12 C12           -2.3127     5.6269     0.1171 C.ar    
  13 C13           -1.0979     6.2862     0.3173 C.ar    
  14 C14            0.0846     5.5499     0.4174 C.ar    
  15 C15            0.0486     4.1759     0.3241 C.ar    
  16 O16           -2.1300     8.5742     0.3426 O.3     
  17 C17           -1.0637     7.7594     0.4224 C.2     
  18 N18            0.0117     8.4863     0.6094 N.2     
  19 C19           -0.3496     9.7856     0.6527 C.2     
  20 C20           -1.6948     9.8414     0.4851 C.2     
  21 C21            0.5588    10.9427     0.8489 C.ar    
  22 C22            1.9276    10.7371     1.0096 C.ar    
  23 C23            2.7686    11.8158     1.1913 C.ar    
  24 C24            2.2539    13.1019     1.2141 C.ar    
  25 C25            0.8937    13.3109     1.0546 C.ar    
  26 C26            0.0461    12.2383     0.8671 C.ar    
  27 F27            3.0808    14.1552     1.3927 F       
  28 Cl28          -0.0873    -4.5094    -0.5839 Cl      
  29 Cl29           2.1844     0.1953    -1.9505 Cl      
  30 H30            1.7257    -2.5992    -1.6614 H       
  31 H31           -1.9535    -2.6562     0.5027 H       
  32 H32           -1.9939    -0.1983     0.5227 H       
  33 H33           -1.9499     1.6362     0.3736 H       
  34 H34           -3.2802     3.7427    -0.1361 H       
  35 H35           -3.2288     6.1935     0.0390 H       
  36 H36            1.0256     6.0568     0.5721 H       
  37 H37            0.9621     3.6055     0.4058 H       
  38 H38           -2.3026    10.7340     0.4685 H       
  39 H39            2.3295     9.7348     0.9924 H       
  40 H40            3.8295    11.6573     1.3164 H       
  41 H41            0.4966    14.3151     1.0733 H       
  42 H42           -1.0136    12.4024     0.7388 H       
@<TRIPOS>BOND
   1    1    2 1
   2    1    8 2
   3    1    9 am
   4    2    3 ar
   5    2    7 ar
   6    3    4 ar
   7    3   29 1
   8    4    5 ar
   9    4   30 1
  10    5    6 ar
  11    5   28 1
  12    6    7 ar
  13    6   31 1
  14    7   32 1
  15    9   10 1
  16    9   33 1
  17   10   11 ar
  18   10   15 ar
  19   11   12 ar
  20   11   34 1
  21   12   13 ar
  22   12   35 1
  23   13   14 ar
  24   13   17 1
  25   14   15 ar
  26   14   36 1
  27   15   37 1
  28   16   17 1
  29   16   20 1
  30   17   18 2
  31   18   19 1
  32   19   20 2
  33   19   21 1
  34   20   38 1
  35   21   22 ar
  36   21   26 ar
  37   22   23 ar
  38   22   39 1
  39   23   24 ar
  40   23   40 1
  41   24   25 ar
  42   24   27 1
  43   25   26 ar
  44   25   41 1
  45   26   42 1

#	End of record

