#	Name: ASD01884273
#	Creating user name:	WinNT
#	Creation time:	15. 06. 2019 19:47

#	Modifying user name:	WinNT
#	Modification time:	15. 06. 2019 19:47

#	Program:	/corina/corina34_cracker 3.40 0067  02.08.2006

@<TRIPOS>MOLECULE
ASD01884273
  47   51    0    0    0
SMALL
NO_CHARGES


@<TRIPOS>ATOM
   1 N1             3.5920     2.4966     5.1940 N.ar    
   2 C2             3.8295     3.7392     4.7880 C.ar    
   3 C3             3.9204     1.4531     4.4611 C.ar    
   4 C4             4.5301     1.6113     3.2307 C.ar    
   5 C5             4.7992     2.8956     2.7630 C.ar    
   6 C6             4.4401     3.9785     3.5596 C.ar    
   7 O7             5.3964     3.0860     1.5590 O.3     
   8 C8             5.7122     1.9894     0.8236 C.ar    
   9 C9             4.7208     1.3282     0.1063 C.ar    
  10 C10            7.0228     1.5372     0.7867 C.ar    
  11 C11            7.3490     0.4146     0.0345 C.ar    
  12 C12            6.3426    -0.2572    -0.6867 C.ar    
  13 C13            5.0290     0.2145    -0.6435 C.ar    
  14 C14            8.7470    -0.0722    -0.0087 C.ar    
  15 C15            9.7889     0.8208    -0.2412 C.ar    
  16 C16           11.0902     0.3619    -0.2867 C.ar    
  17 C17           11.3473    -1.0051    -0.0967 C.ar    
  18 C18           10.2379    -1.8305     0.1434 C.ar    
  19 N19            9.0091    -1.3628     0.1801 N.ar    
  20 N20           12.5940    -1.6316    -0.1352 N.3     
  21 C21           12.6253    -2.9281     0.5775 C.3     
  22 S22           10.8826    -3.4705     0.3780 S.3     
  23 C23           13.6490    -0.7352     0.3560 C.3     
  24 C24           14.9470    -1.5251     0.5349 C.3     
  25 C25           16.2014    -0.7430     0.9296 C.3     
  26 F26           14.7988    -1.0277     2.9855 F       
  27 C27           15.5102    -1.6471     1.9522 C.3     
  28 F28           16.1495    -2.8441     2.2925 F       
  29 C29            3.4538     4.8420     5.6207 C.1     
  30 N30            3.1558     5.7168     6.2812 N.1     
  31 C31            6.6662    -1.4148    -1.4652 C.1     
  32 N32            6.9228    -2.3331    -2.0827 N.1     
  33 H33            3.7106     0.4588     4.8269 H       
  34 H34            4.7954     0.7481     2.6383 H       
  35 H35            4.6330     4.9890     3.2308 H       
  36 H36            3.7036     1.6898     0.1376 H       
  37 H37            7.7896     2.0572     1.3417 H       
  38 H38            4.2535    -0.2970    -1.1942 H       
  39 H39            9.5799     1.8704    -0.3860 H       
  40 H40           11.9037     1.0488    -0.4675 H       
  41 H41           13.3118    -3.6250     0.0968 H       
  42 H42           12.8774    -2.7930     1.6293 H       
  43 H43           13.8084     0.0673    -0.3642 H       
  44 H44           13.3478    -0.3097     1.3132 H       
  45 H45           15.0746    -2.3772    -0.1328 H       
  46 H46           17.1542    -1.0808     0.5220 H       
  47 H47           16.1018     0.3344     1.0619 H       
@<TRIPOS>BOND
   1    1    2 ar
   2    1    3 ar
   3    2   29 1
   4    2    6 ar
   5    3    4 ar
   6    3   33 1
   7    4    5 ar
   8    4   34 1
   9    5    6 ar
  10    5    7 1
  11    6   35 1
  12    7    8 1
  13    8    9 ar
  14    8   10 ar
  15    9   13 ar
  16    9   36 1
  17   10   11 ar
  18   10   37 1
  19   11   12 ar
  20   11   14 1
  21   12   13 ar
  22   12   31 1
  23   13   38 1
  24   14   15 ar
  25   14   19 ar
  26   15   16 ar
  27   15   39 1
  28   16   17 ar
  29   16   40 1
  30   17   18 ar
  31   17   20 1
  32   18   19 ar
  33   18   22 1
  34   20   21 1
  35   20   23 1
  36   21   22 1
  37   21   41 1
  38   21   42 1
  39   23   24 1
  40   23   43 1
  41   23   44 1
  42   24   25 1
  43   24   27 1
  44   24   45 1
  45   25   27 1
  46   25   46 1
  47   25   47 1
  48   26   27 1
  49   27   28 1
  50   29   30 3
  51   31   32 3

#	End of record

