#	Name: ASD01917991
#	Creating user name:	WinNT
#	Creation time:	15. 06. 2019 20:10

#	Modifying user name:	WinNT
#	Modification time:	15. 06. 2019 20:10

#	Program:	/corina/corina34_cracker 3.40 0067  02.08.2006

@<TRIPOS>MOLECULE
ASD01917991
  40   43    0    0    0
SMALL
NO_CHARGES


@<TRIPOS>ATOM
   1 N1             4.7261    -0.5757    -2.1729 N.ar    
   2 C2             5.2104     0.1543    -3.1575 C.ar    
   3 N3             5.1518     1.4708    -3.1423 N.ar    
   4 C4             4.5986     2.1141    -2.1275 C.ar    
   5 C5             4.0752     1.3804    -1.0676 C.ar    
   6 C6             4.1573    -0.0073    -1.1225 C.ar    
   7 O7             3.4990     2.0032    -0.0060 O.3     
   8 C8             3.5511     3.3617     0.0429 C.2     
   9 N9             2.4065     5.4401    -0.0234 N.pl3   
  10 C10            2.4054     4.0776    -0.0665 C.2     
  11 C11            4.7874     3.9989     0.2112 C.2     
  12 C12            4.8353     5.3865     0.2605 C.2     
  13 C13            3.5797     6.1313     0.1332 C.2     
  14 C14            6.1156     6.0911     0.4367 C.2     
  15 N15            6.1429     7.4378     0.4822 N.am    
  16 C16            7.3370     8.1014     0.7543 C.ar    
  17 N17            8.4620     7.4104     0.8598 N.ar    
  18 C18            7.3375     9.4825     0.9067 C.ar    
  19 C19            8.5306    10.1312     1.1765 C.ar    
  20 C20            9.6868     9.3732     1.2849 C.ar    
  21 C21            9.6153     8.0007     1.1163 C.ar    
  22 O22            7.1489     5.4579     0.5412 O.2     
  23 C23            1.4051     6.3707    -0.1086 C.2     
  24 C24            1.9828     7.5871    -0.0127 C.2     
  25 N25            3.3008     7.4222     0.1402 N.2     
  26 C26            5.8503    -0.5363    -4.3342 C.3     
  27 F27           10.7384     7.2565     1.2159 F       
  28 H28            4.5543     3.1932    -2.1215 H       
  29 H29            3.7625    -0.6117    -0.3192 H       
  30 H30            1.4682     3.5556    -0.1913 H       
  31 H31            5.6932     3.4178     0.3020 H       
  32 H32            5.3310     7.9449     0.3255 H       
  33 H33            6.4188    10.0430     0.8155 H       
  34 H34            8.5603    11.2038     1.2993 H       
  35 H35           10.6336     9.8487     1.4946 H       
  36 H36            0.3518     6.1693    -0.2361 H       
  37 H37            1.4656     8.5347    -0.0443 H       
  38 H38            5.0936    -0.7382    -5.0924 H       
  39 H39            6.6243     0.1054    -4.7553 H       
  40 H40            6.2957    -1.4755    -4.0062 H       
@<TRIPOS>BOND
   1    1    2 ar
   2    1    6 ar
   3    2    3 ar
   4    2   26 1
   5    3    4 ar
   6    4    5 ar
   7    4   28 1
   8    5    6 ar
   9    5    7 1
  10    6   29 1
  11    7    8 1
  12    8   11 1
  13    8   10 2
  14    9   10 1
  15    9   23 1
  16    9   13 1
  17   10   30 1
  18   11   12 2
  19   11   31 1
  20   12   13 1
  21   12   14 1
  22   13   25 2
  23   14   15 am
  24   14   22 2
  25   15   16 1
  26   15   32 1
  27   16   18 ar
  28   16   17 ar
  29   17   21 ar
  30   18   19 ar
  31   18   33 1
  32   19   20 ar
  33   19   34 1
  34   20   21 ar
  35   20   35 1
  36   21   27 1
  37   23   24 2
  38   23   36 1
  39   24   25 1
  40   24   37 1
  41   26   38 1
  42   26   39 1
  43   26   40 1

#	End of record

