#	Name: ASD05720307
#	Creating user name:	WinNT
#	Creation time:	15. 06. 2019 21:02

#	Modifying user name:	WinNT
#	Modification time:	15. 06. 2019 21:02

#	Program:	/corina/corina34_cracker 3.40 0067  02.08.2006

@<TRIPOS>MOLECULE
ASD05720307
  54   57    0    0    0
SMALL
NO_CHARGES


@<TRIPOS>ATOM
   1 N1            -0.0162     1.3436     0.0094 N.am    
   2 C2            -0.2045     0.1223    -0.5287 C.2     
   3 O3             0.6870    -0.4058    -1.1648 O.2     
   4 N4            -1.3811    -0.5136    -0.3617 N.am    
   5 C5            -1.5858    -1.8410    -0.9466 C.3     
   6 C6             1.2374     1.9544    -0.0667 C.ar    
   7 C7             1.3292     3.3341    -0.2138 C.ar    
   8 C8             2.5643     3.9395    -0.2893 C.ar    
   9 C9             3.7245     3.1664    -0.2178 C.ar    
  10 C10            3.6292     1.7815    -0.0701 C.ar    
  11 C11            2.3913     1.1824     0.0104 C.ar    
  12 C12            6.4328     5.4637    -1.1497 C.ar    
  13 N13            7.4836     5.0314    -0.4727 N.ar    
  14 C14            7.3871     3.9728     0.3271 C.ar    
  15 C15            6.1441     3.3164     0.4426 C.ar    
  16 C16            5.0526     3.8135    -0.2990 C.ar    
  17 N17            5.2448     4.8782    -1.0722 N.ar    
  18 N18            7.5655     2.2445     1.7408 N.2     
  19 N19            8.2571     3.3006     1.1343 N.pl3   
  20 C20            6.3254     2.2444     1.3422 C.2     
  21 O21            6.5627     7.9576    -4.4089 O.3     
  22 C22            5.4979     8.1667    -3.4772 C.3     
  23 C23            5.3095     6.9029    -2.6338 C.3     
  24 N24            6.5767     6.5724    -1.9658 N.3     
  25 C25            7.6470     6.3652    -2.9522 C.3     
  26 C26            7.8120     7.6344    -3.7924 C.3     
  27 C27            9.6715     3.6267     1.3322 C.3     
  28 C28            9.9223     3.9336     2.8100 C.3     
  29 C29           10.5337     2.4372     0.9049 C.3     
  30 H30           -0.7524     1.7999     0.4461 H       
  31 H31           -2.0923    -0.0922     0.1458 H       
  32 H32           -2.5895    -2.1925    -0.7077 H       
  33 H33           -1.4690    -1.7832    -2.0288 H       
  34 H34           -0.8511    -2.5351    -0.5385 H       
  35 H35            0.4312     3.9316    -0.2694 H       
  36 H36            2.6350     5.0111    -0.4039 H       
  37 H37            4.5251     1.1809    -0.0145 H       
  38 H38            2.3170     0.1115     0.1295 H       
  39 H39            5.5642     1.5422     1.6485 H       
  40 H40            5.7435     9.0055    -2.8261 H       
  41 H41            4.5773     8.3831    -4.0192 H       
  42 H42            4.5376     7.0773    -1.8843 H       
  43 H43            5.0115     6.0761    -3.2786 H       
  44 H44            8.5814     6.1471    -2.4350 H       
  45 H45            7.3864     5.5298    -3.6020 H       
  46 H46            8.5650     7.4659    -4.5622 H       
  47 H47            8.1248     8.4578    -3.1503 H       
  48 H48            9.9310     4.4981     0.7310 H       
  49 H49           10.9747     4.1762     2.9572 H       
  50 H50            9.3080     4.7810     3.1144 H       
  51 H51            9.6627     3.0622     3.4111 H       
  52 H52           10.3551     2.2186    -0.1479 H       
  53 H53           11.5861     2.6798     1.0521 H       
  54 H54           10.2742     1.5658     1.5060 H       
@<TRIPOS>BOND
   1    1    2 am
   2    1    6 1
   3    1   30 1
   4    2    3 2
   5    2    4 am
   6    4    5 1
   7    4   31 1
   8    5   32 1
   9    5   33 1
  10    5   34 1
  11    6    7 ar
  12    6   11 ar
  13    7    8 ar
  14    7   35 1
  15    8    9 ar
  16    8   36 1
  17    9   10 ar
  18    9   16 1
  19   10   11 ar
  20   10   37 1
  21   11   38 1
  22   12   13 ar
  23   12   17 ar
  24   12   24 1
  25   13   14 ar
  26   14   15 ar
  27   14   19 1
  28   15   16 ar
  29   15   20 1
  30   16   17 ar
  31   18   19 1
  32   18   20 2
  33   19   27 1
  34   20   39 1
  35   21   22 1
  36   21   26 1
  37   22   23 1
  38   22   40 1
  39   22   41 1
  40   23   24 1
  41   23   42 1
  42   23   43 1
  43   24   25 1
  44   25   26 1
  45   25   44 1
  46   25   45 1
  47   26   46 1
  48   26   47 1
  49   27   28 1
  50   27   29 1
  51   27   48 1
  52   28   49 1
  53   28   50 1
  54   28   51 1
  55   29   52 1
  56   29   53 1
  57   29   54 1

#	End of record

