#	Name: ASD03090653
#	Creating user name:	WinNT
#	Creation time:	15. 06. 2019 20:29

#	Modifying user name:	WinNT
#	Modification time:	15. 06. 2019 20:29

#	Program:	/corina/corina34_cracker 3.40 0067  02.08.2006

@<TRIPOS>MOLECULE
ASD03090653
  35   36    0    0    0
SMALL
NO_CHARGES


@<TRIPOS>ATOM
   1 N1            -0.1831     1.5477     0.2411 N.am    
   2 C2             0.2374     0.2860     0.4595 C.2     
   3 O3             1.4058     0.0706     0.7182 O.2     
   4 N4            -0.6374    -0.7371     0.3913 N.am    
   5 C5            -0.1831    -2.0552     0.5118 C.ar    
   6 C6            -0.9609    -3.0024     1.1652 C.ar    
   7 C7            -0.5099    -4.3022     1.2825 C.ar    
   8 C8             0.7152    -4.6613     0.7504 C.ar    
   9 C9             1.4919    -3.7208     0.0994 C.ar    
  10 C10            1.0435    -2.4203    -0.0266 C.ar    
  11 C11           -1.3532    -5.3306     1.9913 C.3     
  12 F12           -2.2000    -5.9550     1.0693 F       
  13 F13           -0.5219    -6.2874     2.5835 F       
  14 F14           -2.1204    -4.7039     2.9791 F       
  15 C15            0.6994     2.6214     0.4210 C.ar    
  16 C16            0.5241     3.7934    -0.3027 C.ar    
  17 C17            1.3939     4.8509    -0.1250 C.ar    
  18 C18            2.4430     4.7426     0.7763 C.ar    
  19 C19            2.6188     3.5722     1.4995 C.ar    
  20 C20            1.7459     2.5157     1.3269 C.ar    
  21 C21           -0.6152     3.9110    -1.2822 C.3     
  22 O22            3.2996     5.7842     0.9505 O.3     
  23 H23           -1.0953     1.7123    -0.0445 H       
  24 H24           -1.5817    -0.5598     0.2587 H       
  25 H25           -1.9174    -2.7224     1.5815 H       
  26 H26            1.0661    -5.6784     0.8441 H       
  27 H27            2.4481    -4.0043    -0.3150 H       
  28 H28            1.6486    -1.6872    -0.5392 H       
  29 H29            1.2578     5.7623    -0.6881 H       
  30 H30            3.4356     3.4885     2.2010 H       
  31 H31            1.8800     1.6062     1.8936 H       
  32 H32           -1.4926     4.3095    -0.7729 H       
  33 H33           -0.3297     4.5817    -2.0927 H       
  34 H34           -0.8472     2.9270    -1.6896 H       
  35 H35            3.0296     6.4041     1.6418 H       
@<TRIPOS>BOND
   1    1    2 am
   2    1   15 1
   3    1   23 1
   4    2    3 2
   5    2    4 am
   6    4    5 1
   7    4   24 1
   8    5    6 ar
   9    5   10 ar
  10    6    7 ar
  11    6   25 1
  12    7    8 ar
  13    7   11 1
  14    8    9 ar
  15    8   26 1
  16    9   10 ar
  17    9   27 1
  18   10   28 1
  19   11   12 1
  20   11   13 1
  21   11   14 1
  22   15   16 ar
  23   15   20 ar
  24   16   17 ar
  25   16   21 1
  26   17   18 ar
  27   17   29 1
  28   18   19 ar
  29   18   22 1
  30   19   20 ar
  31   19   30 1
  32   20   31 1
  33   21   32 1
  34   21   33 1
  35   21   34 1
  36   22   35 1

#	End of record

