#	Name: ASD01916345
#	Creating user name:	WinNT
#	Creation time:	15. 06. 2019 20:07

#	Modifying user name:	WinNT
#	Modification time:	15. 06. 2019 20:07

#	Program:	/corina/corina34_cracker 3.40 0067  02.08.2006

@<TRIPOS>MOLECULE
ASD01916345
  34   36    0    0    0
SMALL
NO_CHARGES


@<TRIPOS>ATOM
   1 C1            -0.0308     1.5479    -0.0189 C.3     
   2 C2            -0.0181     0.0137    -0.0313 C.3     
   3 C3             0.6143    -0.4800    -1.3304 C.3     
   4 C4             1.9756     0.1223    -1.5341 C.ar    
   5 C5             2.3507     1.3160    -0.9072 C.ar    
   6 C6             1.4113     2.0142    -0.0187 C.2     
   7 O7             1.7765     2.9293     0.6888 O.2     
   8 N8             2.8505    -0.4784    -2.3220 N.ar    
   9 C9             4.0569     0.0384    -2.5171 C.ar    
  10 N10            4.4454     1.1694    -1.9411 N.ar    
  11 C11            3.6327     1.8320    -1.1385 C.ar    
  12 N12            4.9381    -0.6230    -3.3470 N.pl3   
  13 C13            6.1702    -0.0428    -3.6629 C.ar    
  14 C14            7.2927    -0.8426    -3.8338 C.ar    
  15 C15            8.5084    -0.2662    -4.1464 C.ar    
  16 C16            8.6086     1.1055    -4.2892 C.ar    
  17 C17            7.4927     1.9048    -4.1192 C.ar    
  18 C18            6.2732     1.3345    -3.8123 C.ar    
  19 C19            9.7271    -1.1331    -4.3315 C.3     
  20 H20           -0.5406     1.9212    -0.9071 H       
  21 H21           -0.5362     1.9069     0.8776 H       
  22 H22            0.5613    -0.3517     0.8166 H       
  23 H23           -1.0401    -0.3586     0.0396 H       
  24 H24            0.7057    -1.5656    -1.2934 H       
  25 H25           -0.0273    -0.2046    -2.1675 H       
  26 H26            3.9495     2.7522    -0.6703 H       
  27 H27            4.7030    -1.4907    -3.7113 H       
  28 H28            7.2152    -1.9140    -3.7220 H       
  29 H29            9.5603     1.5536    -4.5336 H       
  30 H30            7.5745     2.9759    -4.2308 H       
  31 H31            5.4023     1.9593    -3.6797 H       
  32 H32            9.8056    -1.4310    -5.3771 H       
  33 H33           10.6177    -0.5739    -4.0451 H       
  34 H34            9.6393    -2.0216    -3.7062 H       
@<TRIPOS>BOND
   1    1    2 1
   2    1    6 1
   3    1   20 1
   4    1   21 1
   5    2    3 1
   6    2   22 1
   7    2   23 1
   8    3    4 1
   9    3   24 1
  10    3   25 1
  11    4    5 ar
  12    4    8 ar
  13    5    6 1
  14    5   11 ar
  15    6    7 2
  16    8    9 ar
  17    9   10 ar
  18    9   12 1
  19   10   11 ar
  20   11   26 1
  21   12   13 1
  22   12   27 1
  23   13   14 ar
  24   13   18 ar
  25   14   15 ar
  26   14   28 1
  27   15   16 ar
  28   15   19 1
  29   16   17 ar
  30   16   29 1
  31   17   18 ar
  32   17   30 1
  33   18   31 1
  34   19   32 1
  35   19   33 1
  36   19   34 1

#	End of record

